-------------------------------------------------------
          Amber 18 PMEMD                              2018
          -------------------------------------------------------

  [-O]verwriting output

File Assignments:

 Here is the input file:

NTP 10ns
 &cntrl
  imin=0,
  ntpr   = 10000,    ntwx   = 10000,
  ntwr   = 10000,
  iwrap=1,
  ntx=5, irest=1,
  ntf    = 2,       ntb    = 2,
  ntc    = 2,       cut    = 10.0,
  nstlim = 5000000,
  dt     = 0.002,
  nscm   = 1000,
  temp0  = 300.0, tempi = 300.0,
  ntt    = 3, gamma_ln = 2.0,
  ntp    = 1, taup   = 0.5,
  ntr=1, restraint_wt=100,
  restraintmask="!:WAT  & !@H=",
  ig=-1,
  ioutfm=1,
 /

Note: ig = -1. Setting random seed to   902587 based on wallclock time in
      microseconds.

--------------------------------------------------------------------------------
   1.  RESOURCE   USE:
--------------------------------------------------------------------------------

 getting box info from netcdf restart file
 NATOM  =  839817 NTYPES =      42 NBONH =  822786 MBONA  =   15853
 NTHETH =  302839 MTHETA =   21614 NPHIH =   57617 MPHIA  =   40468
 NHPARM =       0 NPARM  =       0 NNB   = 1246106 NRES   =  272789
 NBONA  =   15853 NTHETA =   21614 NPHIA =   40468 NUMBND =      95
 NUMANG =     211 NPTRA  =     468 NATYP =       0 NPHB   =       0
 IFBOX  =       1 NMXRS  =      30 IFCAP =       0 NEXTRA =       0
 NCOPY  =       0

     BOX TYPE: RECTILINEAR

--------------------------------------------------------------------------------
   2.  CONTROL  DATA  FOR  THE  RUN
--------------------------------------------------------------------------------

General flags:
     imin    =       0, nmropt  =       0

Nature and format of input:
     ntx     =       5, irest   =       1, ntrx    =       1

Nature and format of output:
     ntxo    =       2, ntpr    =   10000, ntrx    =       1, ntwr    =   10000
     iwrap   =       1, ntwx    =   10000, ntwv    =       0, ntwe    =       0
     ioutfm  =       1, ntwprt  =       0, idecomp =       0, rbornstat=      0

Potential function:
     ntf     =       2, ntb     =       2, igb     =       0, nsnb    =      25
     ipol    =       0, gbsa    =       0, iesp    =       0
     dielc   =   1.00000, cut     =  10.00000, intdiel =   1.00000

Frozen or restrained atoms:
     ibelly  =       0, ntr     =       1
     restraint_wt = 100.00000

Molecular dynamics:
     nstlim  =   5000000, nscm    =         0, nrespa  =         1
     t       =   0.00000, dt      =   0.00200, vlimit  =  -1.00000

Langevin dynamics temperature regulation:
     ig      =  902587
     temp0   = 300.00000, tempi   = 300.00000, gamma_ln=   2.00000

Pressure regulation:
     ntp     =       1
     pres0   =   1.00000, comp    =  44.60000, taup    =   0.50000

SHAKE:
     ntc     =       2, jfastw  =       0
     tol     =   0.00001

Ewald parameters:
     verbose =       0, ew_type =       0, nbflag  =       1, use_pme =       1
     vdwmeth =       1, eedmeth =       1, netfrc  =       1
     Box X =  204.387   Box Y =  204.387   Box Z =  204.387
     Alpha =   90.000   Beta  =   90.000   Gamma =   90.000
     NFFT1 =  216       NFFT2 =  216       NFFT3 =  216
     Cutoff=   10.000   Tol   =0.100E-04
     Ewald Coefficient =  0.27511
     Interpolation order =    4

    LOADING THE CONSTRAINED ATOMS AS GROUPS

   5.  REFERENCE ATOM COORDINATES

     Mask !:WAT  & !@H=; matches 17031 atoms

--------------------------------------------------------------------------------
   3.  ATOMIC COORDINATES AND VELOCITIES
--------------------------------------------------------------------------------

 begin time read from input coords =    40.000 ps

 Number of triangulated 3-point waters found:   269298

     Sum of charges from parm topology file =   0.00000000
     Forcing neutrality...

--------------------------------------------------------------------------------
   4.  RESULTS
 NSTEP =    10000   TIME(PS) =      60.000  TEMP(K) =   299.06  PRESS =   -10.6
 Etot   =  -2276295.9407  EKtot   =    504150.4062  EPtot      =  -2780446.3470
 BOND   =      5708.4134  ANGLE   =     13971.2688  DIHED      =     19780.5740
 UB     =      1693.4171  IMP     =       856.8733  CMAP       =         0.0000
 1-4 NB =      5386.1410  1-4 EEL =     96897.9198  VDWAALS    =    270753.2876
 EELEC  =  -3204617.3198  EHBOND  =         0.0000  RESTRAINT  =      9123.0777
 EAMBER (non-restraint)  =  -2789569.4247
 EKCMT  =    242448.1254  VIRIAL  =    244384.9707  VOLUME     =   8476342.9469
                                                    Density    =         1.0026
 ------------------------------------------------------------------------------

      A V E R A G E S   O V E R     500 S T E P S

 NSTEP =  5000000   TIME(PS) =   10040.000  TEMP(K) =   300.01  PRESS =     1.0
 Etot   =  -2275196.4634  EKtot   =    505760.2826  EPtot      =  -2780956.7459
 BOND   =      5724.6720  ANGLE   =     13949.7761  DIHED      =     19822.3773
 UB     =      1711.4147  IMP     =       862.0022  CMAP       =         0.0000
 1-4 NB =      5378.9883  1-4 EEL =     96953.1588  VDWAALS    =    271108.7564
 EELEC  =  -3205553.5984  EHBOND  =         0.0000  RESTRAINT  =      9085.7067
 EAMBER (non-restraint)  =  -2790042.4526
 EKCMT  =    243001.9401  VIRIAL  =    242812.4036  VOLUME     =   8473339.5160
                                                    Density    =         1.0029
 ------------------------------------------------------------------------------

      R M S  F L U C T U A T I O N S

 NSTEP =  5000000   TIME(PS) =   10040.000  TEMP(K) =     0.32  PRESS =    24.2
 Etot   =       931.3391  EKtot   =       537.6192  EPtot      =       767.5652
 BOND   =        54.6389  ANGLE   =        74.2240  DIHED      =        35.3154
 UB     =        15.9579  IMP     =        18.4356  CMAP       =         0.0000
 1-4 NB =        23.6416  1-4 EEL =        71.6626  VDWAALS    =       629.0817
 EELEC  =      1033.7610  EHBOND  =         0.0000  RESTRAINT  =        62.3631
 EAMBER (non-restraint)  =       705.2021
 EKCMT  =       378.6062  VIRIAL  =      4468.2224  VOLUME     =      2437.7161
                                                    Density    =         0.0003
 ------------------------------------------------------------------------------
