-------------------------------------------------------
          Amber 18 PMEMD                              2018
          -------------------------------------------------------

  [-O]verwriting output

File Assignments:

 Here is the input file:

equil NVT 5ns
 &cntrl
  imin=0,
  ntpr   = 10000,    ntwx   = 10000,
  ntwr   = 10000,
  iwrap=1,
  ntx=5, irest=1,
  ntf    = 2,       ntb    = 1,
  ntc    = 2,       cut    = 9.0,
  nstlim = 2500000,
  dt     = 0.002,
  nscm   = 1000,
  temp0  = 300.0,
  ntt    = 3, gamma_ln = 2.0,
  ntr=1, restraint_wt=100,
  restraintmask="!:WAT",
  ig=-1,
  ioutfm=1,
 /

Note: ig = -1. Setting random seed to   259780 based on wallclock time in
      microseconds.

--------------------------------------------------------------------------------
   1.  RESOURCE   USE:
--------------------------------------------------------------------------------

 getting box info from netcdf restart file
 NATOM  =  839817 NTYPES =      42 NBONH =  822786 MBONA  =   15853
 NTHETH =  302839 MTHETA =   21614 NPHIH =   57617 MPHIA  =   40468
 NHPARM =       0 NPARM  =       0 NNB   = 1246106 NRES   =  272789
 NBONA  =   15853 NTHETA =   21614 NPHIA =   40468 NUMBND =      95
 NUMANG =     211 NPTRA  =     468 NATYP =       0 NPHB   =       0
 IFBOX  =       1 NMXRS  =      30 IFCAP =       0 NEXTRA =       0
 NCOPY  =       0

     BOX TYPE: RECTILINEAR

--------------------------------------------------------------------------------
   2.  CONTROL  DATA  FOR  THE  RUN
--------------------------------------------------------------------------------

General flags:
     imin    =       0, nmropt  =       0

Nature and format of input:
     ntx     =       5, irest   =       1, ntrx    =       1

Nature and format of output:
     ntxo    =       2, ntpr    =   10000, ntrx    =       1, ntwr    =   10000
     iwrap   =       1, ntwx    =   10000, ntwv    =       0, ntwe    =       0
     ioutfm  =       1, ntwprt  =       0, idecomp =       0, rbornstat=      0

Potential function:
     ntf     =       2, ntb     =       1, igb     =       0, nsnb    =      25
     ipol    =       0, gbsa    =       0, iesp    =       0
     dielc   =   1.00000, cut     =   9.00000, intdiel =   1.00000

Frozen or restrained atoms:
     ibelly  =       0, ntr     =       1
     restraint_wt = 100.00000

Molecular dynamics:
     nstlim  =   2500000, nscm    =         0, nrespa  =         1
     t       =   0.00000, dt      =   0.00200, vlimit  =  -1.00000

Langevin dynamics temperature regulation:
     ig      =  259780
     temp0   = 300.00000, tempi   =   0.00000, gamma_ln=   2.00000

SHAKE:
     ntc     =       2, jfastw  =       0
     tol     =   0.00001

Ewald parameters:
     verbose =       0, ew_type =       0, nbflag  =       1, use_pme =       1
     vdwmeth =       1, eedmeth =       1, netfrc  =       1
     Box X =  203.863   Box Y =  203.863   Box Z =  203.863
     Alpha =   90.000   Beta  =   90.000   Gamma =   90.000
     NFFT1 =  216       NFFT2 =  216       NFFT3 =  216
     Cutoff=    9.000   Tol   =0.100E-04
     Ewald Coefficient =  0.30768
     Interpolation order =    4

    LOADING THE CONSTRAINED ATOMS AS GROUPS

   5.  REFERENCE ATOM COORDINATES

     Mask !:WAT; matches 31923 atoms

--------------------------------------------------------------------------------
   3.  ATOMIC COORDINATES AND VELOCITIES
--------------------------------------------------------------------------------

 begin time read from input coords = 10040.000 ps

 Number of triangulated 3-point waters found:   269298

     Sum of charges from parm topology file =   0.00000000
     Forcing neutrality...

--------------------------------------------------------------------------------
   4.  RESULTS
 NSTEP =    10000   TIME(PS) =   10060.000  TEMP(K) =   299.73  PRESS =     0.0
 Etot   =  -2264892.4628  EKtot   =    505291.6250  EPtot      =  -2770184.0878
 BOND   =      5723.7247  ANGLE   =     12836.0805  DIHED      =     19737.7936
 UB     =      1525.3965  IMP     =       805.4359  CMAP       =         0.0000
 1-4 NB =      5340.9297  1-4 EEL =     97004.7368  VDWAALS    =    275995.1883
 EELEC  =  -3206743.9331  EHBOND  =         0.0000  RESTRAINT  =     17590.5595
 EAMBER (non-restraint)  =  -2787774.6472
 ------------------------------------------------------------------------------

      A V E R A G E S   O V E R     250 S T E P S

 NSTEP =  2500000   TIME(PS) =   15040.000  TEMP(K) =   300.03  PRESS =     0.0
 Etot   =  -2263935.6471  EKtot   =    505791.7816  EPtot      =  -2769727.4287
 BOND   =      5714.5749  ANGLE   =     12891.3453  DIHED      =     19708.7146
 UB     =      1526.1537  IMP     =       826.7642  CMAP       =         0.0000
 1-4 NB =      5320.7971  1-4 EEL =     96978.1990  VDWAALS    =    275353.1114
 EELEC  =  -3205846.2484  EHBOND  =         0.0000  RESTRAINT  =     17799.1596
 EAMBER (non-restraint)  =  -2787526.5883
 ------------------------------------------------------------------------------

      R M S  F L U C T U A T I O N S

 NSTEP =  2500000   TIME(PS) =   15040.000  TEMP(K) =     0.32  PRESS =     0.0
 Etot   =       893.7254  EKtot   =       547.8204  EPtot      =       723.7815
 BOND   =        56.0751  ANGLE   =        62.6875  DIHED      =        20.8812
 UB     =        13.1280  IMP     =        16.7657  CMAP       =         0.0000
 1-4 NB =        22.0861  1-4 EEL =        47.2350  VDWAALS    =       791.1428
 EELEC  =      1194.3377  EHBOND  =         0.0000  RESTRAINT  =        90.8497
 EAMBER (non-restraint)  =       632.9318
 ------------------------------------------------------------------------------
