-------------------------------------------------------
          Amber 18 PMEMD                              2018
          -------------------------------------------------------

  [-O]verwriting output

File Assignments:

 Here is the input file:

heat NVT 200ps
 &cntrl
  imin = 0,
  irest = 0, ntx = 1,
  ntb = 1, ntc = 2, ntf = 2,
  cut = 9.0,
  tempi = 0.0, temp0 = 50.0,
  ntt = 3, gamma_ln = 2.0,
  nstlim = 10000, dt = 0.002,
  iwrap = 1,
  ntpr = 1000, ntwx = 1000, ntwr = 10000,
  nscm = 1000,
  ntr=1, restraint_wt=100,
  restraintmask='!:WAT & !@H',
  ig=-1,
  ioutfm=1,
 /

Note: ig = -1. Setting random seed to   120012 based on wallclock time in
      microseconds.

--------------------------------------------------------------------------------
   1.  RESOURCE   USE:
--------------------------------------------------------------------------------

 getting box info from netcdf restart file
 NATOM  =  839817 NTYPES =      42 NBONH =  822786 MBONA  =   15853
 NTHETH =  302839 MTHETA =   21614 NPHIH =   57617 MPHIA  =   40468
 NHPARM =       0 NPARM  =       0 NNB   = 1246106 NRES   =  272789
 NBONA  =   15853 NTHETA =   21614 NPHIA =   40468 NUMBND =      95
 NUMANG =     211 NPTRA  =     468 NATYP =       0 NPHB   =       0
 IFBOX  =       1 NMXRS  =      30 IFCAP =       0 NEXTRA =       0
 NCOPY  =       0

     BOX TYPE: RECTILINEAR

--------------------------------------------------------------------------------
   2.  CONTROL  DATA  FOR  THE  RUN
--------------------------------------------------------------------------------

General flags:
     imin    =       0, nmropt  =       0

Nature and format of input:
     ntx     =       1, irest   =       0, ntrx    =       1

Nature and format of output:
     ntxo    =       2, ntpr    =    1000, ntrx    =       1, ntwr    =   10000
     iwrap   =       1, ntwx    =    1000, ntwv    =       0, ntwe    =       0
     ioutfm  =       1, ntwprt  =       0, idecomp =       0, rbornstat=      0

Potential function:
     ntf     =       2, ntb     =       1, igb     =       0, nsnb    =      25
     ipol    =       0, gbsa    =       0, iesp    =       0
     dielc   =   1.00000, cut     =   9.00000, intdiel =   1.00000

Frozen or restrained atoms:
     ibelly  =       0, ntr     =       1
     restraint_wt = 100.00000

Molecular dynamics:
     nstlim  =     10000, nscm    =         0, nrespa  =         1
     t       =   0.00000, dt      =   0.00200, vlimit  =  -1.00000

Langevin dynamics temperature regulation:
     ig      =  120012
     temp0   =  50.00000, tempi   =   0.00000, gamma_ln=   2.00000

SHAKE:
     ntc     =       2, jfastw  =       0
     tol     =   0.00001

Ewald parameters:
     verbose =       0, ew_type =       0, nbflag  =       1, use_pme =       1
     vdwmeth =       1, eedmeth =       1, netfrc  =       1
     Box X =  207.000   Box Y =  207.000   Box Z =  207.000
     Alpha =   90.000   Beta  =   90.000   Gamma =   90.000
     NFFT1 =  216       NFFT2 =  216       NFFT3 =  216
     Cutoff=    9.000   Tol   =0.100E-04
     Ewald Coefficient =  0.30768
     Interpolation order =    4

    LOADING THE CONSTRAINED ATOMS AS GROUPS

   5.  REFERENCE ATOM COORDINATES

     Mask !:WAT & !@H; matches 31923 atoms

--------------------------------------------------------------------------------
   3.  ATOMIC COORDINATES AND VELOCITIES
--------------------------------------------------------------------------------

 begin time read from input coords =     0.000 ps

 Number of triangulated 3-point waters found:   269298

     Sum of charges from parm topology file =   0.00000000
     Forcing neutrality...

--------------------------------------------------------------------------------
   4.  RESULTS
 NSTEP =        0   TIME(PS) =       0.000  TEMP(K) =     0.00  PRESS =     0.0
 Etot   =  -3712942.9965  EKtot   =         0.0000  EPtot      =  -3712942.9965
 BOND   =      1907.8236  ANGLE   =     74914.1618  DIHED      =     18331.9047
 UB     =       384.1613  IMP     =       191.1735  CMAP       =         0.0000
 1-4 NB =      4740.0167  1-4 EEL =     97028.0408  VDWAALS    =    498502.8090
 EELEC  =  -4408943.0878  EHBOND  =         0.0000  RESTRAINT  =         0.0000
 ------------------------------------------------------------------------------

      A V E R A G E S   O V E R      10 S T E P S

 NSTEP =    10000   TIME(PS) =      20.000  TEMP(K) =    50.36  PRESS =     0.0
 Etot   =  -3308431.9404  EKtot   =     84897.6695  EPtot      =  -3393329.6100
 BOND   =      2530.5016  ANGLE   =      6106.7860  DIHED      =     18423.9927
 UB     =       513.3934  IMP     =       278.0098  CMAP       =         0.0000
 1-4 NB =      4790.6801  1-4 EEL =     97023.4421  VDWAALS    =    454024.9050
 EELEC  =  -3979569.1085  EHBOND  =         0.0000  RESTRAINT  =      2547.7878
 EAMBER (non-restraint)  =  -3395877.3978
 ------------------------------------------------------------------------------

      R M S  F L U C T U A T I O N S

 NSTEP =    10000   TIME(PS) =      20.000  TEMP(K) =     0.42  PRESS =     0.0
 Etot   =     12603.0985  EKtot   =       716.4014  EPtot      =     11906.4047
 BOND   =         9.9091  ANGLE   =        13.8676  DIHED      =         4.6056
 UB     =         3.2186  IMP     =         3.6083  CMAP       =         0.0000
 1-4 NB =         6.5770  1-4 EEL =        31.5415  VDWAALS    =      6416.4017
 EELEC  =     18332.2877  EHBOND  =         0.0000  RESTRAINT  =        16.0691
 EAMBER (non-restraint)  =     11890.3357
 ------------------------------------------------------------------------------
