-------------------------------------------------------
          Amber 18 PMEMD                              2018
          -------------------------------------------------------

  [-O]verwriting output

File Assignments:

 Here is the input file:

heat NPT 200ps
 &cntrl
  imin = 0,
  irest = 1, ntx = 5,
  ntb = 2, ntc = 2, ntf = 2,
  cut = 9.0,
  temp0 = 300.0,
  ntt = 3, gamma_ln = 2.0,
  nstlim = 10000, dt = 0.002,
  ntp = 1, taup = 0.5,
  iwrap = 1,
  ntpr = 1000, ntwx = 1000, ntwr = 10000,
  nscm = 1000,
  ntr=1, restraint_wt=100,
  restraintmask='!:WAT & !@H',
  ig=-1,
  ioutfm=1,
 /

Note: ig = -1. Setting random seed to   375400 based on wallclock time in
      microseconds.

--------------------------------------------------------------------------------
   1.  RESOURCE   USE:
--------------------------------------------------------------------------------

 getting box info from netcdf restart file
 NATOM  =  839817 NTYPES =      42 NBONH =  822786 MBONA  =   15853
 NTHETH =  302839 MTHETA =   21614 NPHIH =   57617 MPHIA  =   40468
 NHPARM =       0 NPARM  =       0 NNB   = 1246106 NRES   =  272789
 NBONA  =   15853 NTHETA =   21614 NPHIA =   40468 NUMBND =      95
 NUMANG =     211 NPTRA  =     468 NATYP =       0 NPHB   =       0
 IFBOX  =       1 NMXRS  =      30 IFCAP =       0 NEXTRA =       0
 NCOPY  =       0

     BOX TYPE: RECTILINEAR

--------------------------------------------------------------------------------
   2.  CONTROL  DATA  FOR  THE  RUN
--------------------------------------------------------------------------------

General flags:
     imin    =       0, nmropt  =       0

Nature and format of input:
     ntx     =       5, irest   =       1, ntrx    =       1

Nature and format of output:
     ntxo    =       2, ntpr    =    1000, ntrx    =       1, ntwr    =   10000
     iwrap   =       1, ntwx    =    1000, ntwv    =       0, ntwe    =       0
     ioutfm  =       1, ntwprt  =       0, idecomp =       0, rbornstat=      0

Potential function:
     ntf     =       2, ntb     =       2, igb     =       0, nsnb    =      25
     ipol    =       0, gbsa    =       0, iesp    =       0
     dielc   =   1.00000, cut     =   9.00000, intdiel =   1.00000

Frozen or restrained atoms:
     ibelly  =       0, ntr     =       1
     restraint_wt = 100.00000

Molecular dynamics:
     nstlim  =     10000, nscm    =         0, nrespa  =         1
     t       =   0.00000, dt      =   0.00200, vlimit  =  -1.00000

Langevin dynamics temperature regulation:
     ig      =  375400
     temp0   = 300.00000, tempi   =   0.00000, gamma_ln=   2.00000

Pressure regulation:
     ntp     =       1
     pres0   =   1.00000, comp    =  44.60000, taup    =   0.50000

SHAKE:
     ntc     =       2, jfastw  =       0
     tol     =   0.00001

Ewald parameters:
     verbose =       0, ew_type =       0, nbflag  =       1, use_pme =       1
     vdwmeth =       1, eedmeth =       1, netfrc  =       1
     Box X =  207.000   Box Y =  207.000   Box Z =  207.000
     Alpha =   90.000   Beta  =   90.000   Gamma =   90.000
     NFFT1 =  216       NFFT2 =  216       NFFT3 =  216
     Cutoff=    9.000   Tol   =0.100E-04
     Ewald Coefficient =  0.30768
     Interpolation order =    4

    LOADING THE CONSTRAINED ATOMS AS GROUPS

   5.  REFERENCE ATOM COORDINATES

     Mask !:WAT & !@H; matches 31923 atoms

--------------------------------------------------------------------------------
   3.  ATOMIC COORDINATES AND VELOCITIES
--------------------------------------------------------------------------------

 begin time read from input coords =    20.000 ps

 Number of triangulated 3-point waters found:   269298

     Sum of charges from parm topology file =   0.00000000
     Forcing neutrality...

--------------------------------------------------------------------------------
   4.  RESULTS
 NSTEP =     1000   TIME(PS) =      22.000  TEMP(K) =   284.61  PRESS =  -138.5
 Etot   =  -2356078.5738  EKtot   =    479788.5312  EPtot      =  -2835867.1050
 BOND   =      5417.4204  ANGLE   =     10606.5677  DIHED      =     18929.5654
 UB     =      1175.2620  IMP     =       720.2897  CMAP       =         0.0000
 1-4 NB =      5027.6827  1-4 EEL =     96983.8632  VDWAALS    =    308265.1012
 EELEC  =  -3297598.9294  EHBOND  =         0.0000  RESTRAINT  =     14606.0721
 EAMBER (non-restraint)  =  -2850473.1771
 EKCMT  =    229703.8856  VIRIAL  =    255589.2474  VOLUME     =   8655070.9431
                                                    Density    =         0.9819
 ------------------------------------------------------------------------------

      A V E R A G E S   O V E R      10 S T E P S

 NSTEP =    10000   TIME(PS) =      40.000  TEMP(K) =   298.33  PRESS =   -13.0
 Etot   =  -2274503.6328  EKtot   =    502921.9094  EPtot      =  -2777425.5422
 BOND   =      5462.2273  ANGLE   =     10643.4989  DIHED      =     18950.9805
 UB     =      1159.0508  IMP     =       738.4548  CMAP       =         0.0000
 1-4 NB =      5063.9195  1-4 EEL =     97013.8352  VDWAALS    =    278379.6750
 EELEC  =  -3209896.8221  EHBOND  =         0.0000  RESTRAINT  =     15059.6379
 EAMBER (non-restraint)  =  -2792485.1801
 EKCMT  =    241395.6624  VIRIAL  =    243827.7057  VOLUME     =   8554926.3047
                                                    Density    =         0.9934
 ------------------------------------------------------------------------------

      R M S  F L U C T U A T I O N S

 NSTEP =    10000   TIME(PS) =      40.000  TEMP(K) =     4.60  PRESS =    47.2
 Etot   =     27320.6006  EKtot   =      7760.2640  EPtot      =     19572.4205
 BOND   =        52.8051  ANGLE   =        50.3319  DIHED      =        14.9181
 UB     =        10.4935  IMP     =        14.1659  CMAP       =         0.0000
 1-4 NB =        17.7637  1-4 EEL =        40.7528  VDWAALS    =     10087.8922
 EELEC  =     29423.2439  EHBOND  =         0.0000  RESTRAINT  =       167.2729
 EAMBER (non-restraint)  =     19405.1476
 EKCMT  =      3926.6848  VIRIAL  =      5675.7126  VOLUME     =     33686.3071
                                                    Density    =         0.0039
 ------------------------------------------------------------------------------
