Info: SIMULATION PARAMETERS:
Info: TIMESTEP               1
Info: NUMBER OF STEPS        0
Info: STEPS PER CYCLE        20
Info: FIRST LDB TIMESTEP     100
Info: LAST LDB TIMESTEP     -1
Info: HOM BACKGROUND SCALING 1
Info: MIN ATOMS PER PATCH    40
Info: INITIAL TEMPERATURE    300
Info: CENTER OF MASS MOVING INITIALLY? NO
Info: DIELECTRIC             1
Info: EXCLUDE                SCALED ONE-FOUR
Info: 1-4 ELECTROSTATICS SCALED BY 1
Info: MODIFIED 1-4 VDW PARAMETERS WILL BE USED
Info: DCD FILENAME           relaxation.dcd
Info: DCD FREQUENCY          1000
Info: DCD FIRST STEP         1000
Info: DCD FILE WILL CONTAIN UNIT CELL DATA
Info: XST FILENAME           relaxation.xst
Info: XST FREQUENCY          1000
Info: NO VELOCITY DCD OUTPUT
Info: NO FORCE DCD OUTPUT
Info: OUTPUT FILENAME        relaxation
Info: BINARY OUTPUT FILES WILL BE USED
Info: RESTART FILENAME       relaxation.restart
Info: RESTART FREQUENCY      500
Info: BINARY RESTART FILES WILL BE USED
Info: SWITCHING ACTIVE
Info: VDW FORCE SWITCHING ACTIVE
Info: SWITCHING ON           10
Info: SWITCHING OFF          12
Info: PAIRLIST DISTANCE      16
Info: PAIRLIST SHRINK RATE   0.01
Info: PAIRLIST GROW RATE     0.01
Info: PAIRLIST TRIGGER       0.3
Info: PAIRLISTS PER CYCLE    2
Info: PAIRLISTS ENABLED
Info: MARGIN                 0
Info: HYDROGEN GROUP CUTOFF  2.5
Info: PATCH DIMENSION        18.5
Info: ENERGY OUTPUT STEPS    125
Info: CROSSTERM ENERGY INCLUDED IN DIHEDRAL
Info: TIMING OUTPUT STEPS    1000
Info: VELOCITY REASSIGNMENT FREQ  500
Info: VELOCITY REASSIGNMENT TEMP  300
Info: USING VERLET I (r-RESPA) MTS SCHEME.
Info: C1 SPLITTING OF LONG RANGE ELECTROSTATICS
Info: PLACING ATOMS IN PATCHES BY HYDROGEN GROUPS
Info: RIGID BONDS TO HYDROGEN : ALL
Info:         ERROR TOLERANCE : 1e-08
Info:          MAX ITERATIONS : 100
Info: RIGID WATER USING SETTLE ALGORITHM
Info: RANDOM NUMBER SEED     1696969375
Info: USE HYDROGEN BONDS?    NO
Info: COORDINATE PDB         step5_charmm2namd.pdb
Info: STRUCTURE FILE         step5_charmm2namd.psf
Info: PARAMETER file: CHARMM format!
Info: PARAMETERS             toppar/par_all36m_prot.prm
Info: PARAMETERS             toppar/par_all36_na.prm
Info: PARAMETERS             toppar/par_all36_carb.prm
Info: PARAMETERS             toppar/par_all36_lipid.prm
Info: PARAMETERS             toppar/par_all36_cgenff.prm
Info: PARAMETERS             toppar/par_interface.prm
Info: PARAMETERS             toppar/toppar_water_ions.str
Info: PARAMETERS             toppar/toppar_dum_noble_gases.str
Info: PARAMETERS             toppar/toppar_all36_prot_d_aminoacids.str
Info: PARAMETERS             toppar/toppar_all36_prot_fluoro_alkanes.str
Info: PARAMETERS             toppar/toppar_all36_prot_heme.str
Info: PARAMETERS             toppar/toppar_all36_prot_na_combined.str
Info: PARAMETERS             toppar/toppar_all36_prot_retinol.str
Info: PARAMETERS             toppar/toppar_all36_prot_stapling.str
Info: PARAMETERS             toppar/toppar_all36_prot_modify_res.str
Info: PARAMETERS             toppar/toppar_all36_na_nad_ppi.str
Info: PARAMETERS             toppar/toppar_all36_na_rna_modified.str
Info: PARAMETERS             toppar/toppar_all36_lipid_bacterial.str
Info: PARAMETERS             toppar/toppar_all36_lipid_cardiolipin.str
Info: PARAMETERS             toppar/toppar_all36_lipid_cholesterol.str
Info: PARAMETERS             toppar/toppar_all36_lipid_inositol.str
Info: PARAMETERS             toppar/toppar_all36_lipid_lps.str
Info: PARAMETERS             toppar/toppar_all36_lipid_miscellaneous.str
Info: PARAMETERS             toppar/toppar_all36_lipid_model.str
Info: PARAMETERS             toppar/toppar_all36_lipid_prot.str
Info: PARAMETERS             toppar/toppar_all36_lipid_pyrophosphate.str
Info: PARAMETERS             toppar/toppar_all36_lipid_sphingo.str
Info: PARAMETERS             toppar/toppar_all36_lipid_yeast.str
Info: PARAMETERS             toppar/toppar_all36_lipid_hmmm.str
Info: PARAMETERS             toppar/toppar_all36_lipid_detergent.str
Info: PARAMETERS             toppar/toppar_all36_lipid_ether.str
Info: PARAMETERS             toppar/toppar_all36_carb_glycolipid.str
Info: PARAMETERS             toppar/toppar_all36_carb_glycopeptide.str
Info: PARAMETERS             toppar/toppar_all36_carb_imlab.str
Info: PARAMETERS             toppar/toppar_all36_label_spin.str
Info: PARAMETERS             toppar/toppar_all36_label_fluorophore.str
Info: USING ARITHMETIC MEAN TO COMBINE L-J SIGMA PARAMETERS
Info: 1750 BONDS
Info: 5437 ANGLES
Info: 14309 DIHEDRAL
Info: 341 IMPROPER
Info: 16 CROSSTERM
Info: 624 VDW
Info: 47 VDW_PAIRS
Info: 0 NBTHOLE_PAIRS
Info: STRUCTURE SUMMARY:
Info: 524812 ATOMS
Info: 389170 BONDS
Info: 361872 ANGLES
Info: 320244 DIHEDRALS
Info: 6552 IMPROPERS
Info: 1868 CROSSTERMS
Info: 0 EXCLUSIONS
Info: 473896 RIGID BONDS
Info: 1100537 DEGREES OF FREEDOM
Info: 185520 HYDROGEN GROUPS
Info: 4 ATOMS IN LARGEST HYDROGEN GROUP
Info: 185520 MIGRATION GROUPS
Info: 4 ATOMS IN LARGEST MIGRATION GROUP
Info: TOTAL MASS = 3.17446e+06 amu
Info: TOTAL CHARGE = 5.37857e-05 e
Info: ADDED 1069830 IMPLICIT EXCLUSIONS
Info: NONBONDED TABLE R-SQUARED SPACING: 0.0625
Info: NONBONDED TABLE SIZE: 769 POINTS
Info: ORIGINAL ATOMS MINMAX IS -82.069 -82.232 -115.393  82.266 81.724 150.009
Info: ADJUSTED ATOMS MINMAX IS -77.7211 -77.4705 -113.762  77.5231 77.6395 118.868
Info: REMOVING COM VELOCITY 0.0161273 -0.00401326 -0.00411983
TCL: Minimizing for 2000 steps
ETITLE: TS BOND ANGLE DIHED IMPRP ELECT VDW BOUNDARY MISC KINETIC TOTAL TEMP POTENTIAL TOTAL3 TEMPAVG
ENERGY: 0 105371.3480 250200.1451 57159.7378 1295.9344 -1518607.1020 3088749.1401 0.0000 0.0000 0.0000 1984169.2035 0.0000 1984169.2035 1984169.2035 0.0000
ENERGY: 400 4425.9525 36485.5802 53253.1058 502.7021 -1788991.8530 136850.8122 0.0000 0.0000 0.0000 -1557473.7003 0.0000 -1557473.7003 -1557473.7003 0.0000
ENERGY: 800 3316.2584 27497.0279 52545.9971 443.8891 -1847715.1648 140704.2252 0.0000 0.0000 0.0000 -1623207.7670 0.0000 -1623207.7670 -1623207.7670 0.0000
ENERGY: 1200 3178.5116 24697.0176 52096.0497 416.3406 -1881890.5476 146801.1537 0.0000 0.0000 0.0000 -1654701.4745 0.0000 -1654701.4745 -1654701.4745 0.0000
ENERGY: 1600 3044.5893 22980.2464 51613.2586 393.0883 -1913386.2515 154104.3870 0.0000 0.0000 0.0000 -1681250.6820 0.0000 -1681250.6820 -1681250.6820 0.0000
ENERGY: 2000 2984.3951 21824.8379 51129.6071 378.0930 -1941505.7205 161551.4868 0.0000 0.0000 0.0000 -1703637.3005 0.0000 -1703637.3005 -1703637.3005 0.0000
TCL: Running for 500 steps
ETITLE: TS BOND ANGLE DIHED IMPRP ELECT VDW BOUNDARY MISC KINETIC TOTAL TEMP POTENTIAL TOTAL3 TEMPAVG
ENERGY: 2000 2984.3951 21824.8379 51129.6071 378.0930 -1941505.7205 161551.4868 0.0000 0.0000 328012.3576 -1375624.9429 299.9687 -1703637.3005 -1375672.6065 299.9687
ENERGY: 2125 9099.1287 46525.7259 54641.1681 969.2050 -1811550.3953 143370.0164 0.0000 0.0000 181920.2148 -1375024.9365 166.3668 -1556945.1513 -1374813.7139 167.7522
ENERGY: 2250 9673.7551 48091.7867 54753.9946 915.8459 -1847762.7423 159666.1452 0.0000 0.0000 199677.5665 -1374983.6485 182.6060 -1574661.2150 -1374821.3259 176.0896
ENERGY: 2375 9629.5556 46558.3016 54790.3095 961.8199 -1857143.9693 164096.2268 0.0000 0.0000 206079.8907 -1375027.8652 188.4609 -1581107.7559 -1374821.8283 186.6381
ENERGY: 2500 9807.5919 47361.1898 55027.2577 922.3176 -1864382.4787 167172.8437 0.0000 0.0000 327108.4970 -1256982.7808 299.1421 -1584091.2778 -1202627.7124 190.6448
TCL: Setting parameter reassignTemp to 300
TCL: Running for 500 steps
ETITLE: TS BOND ANGLE DIHED IMPRP ELECT VDW BOUNDARY MISC KINETIC TOTAL TEMP POTENTIAL TOTAL3 TEMPAVG
ENERGY: 2500 9807.5919 47361.1898 55027.2577 922.3176 -1864382.4787 167172.8437 0.0000 0.0000 327900.2480 -1256191.0298 299.8662 -1584091.2778 -1260941.5495 299.8662
ENERGY: 2625 12529.2454 59321.0120 56035.6597 1228.8480 -1796900.7321 154064.8236 0.0000 0.0000 257824.1657 -1255896.9778 235.7813 -1513721.1435 -1255599.2489 239.9352
ENERGY: 2750 12817.4328 60178.3158 55557.6315 1174.7426 -1795363.4498 150359.9875 0.0000 0.0000 259396.4090 -1255878.9307 237.2191 -1515275.3397 -1255602.7235 236.5655
ENERGY: 2875 12670.2737 58528.3079 55469.6688 1209.9956 -1796641.7872 150210.4816 0.0000 0.0000 262647.6293 -1255905.4303 240.1924 -1518553.0595 -1255603.7670 239.0287
ENERGY: 3000 12329.2369 58422.7559 55324.1409 1201.9035 -1799145.8345 150677.3627 0.0000 0.0000 327760.8101 -1193429.6243 299.7387 -1521190.4344 -1164462.8390 241.2274
TCL: Setting parameter reassignTemp to 350
TCL: Running for 500 steps
ETITLE: TS BOND ANGLE DIHED IMPRP ELECT VDW BOUNDARY MISC KINETIC TOTAL TEMP POTENTIAL TOTAL3 TEMPAVG
ENERGY: 3000 12329.2369 58422.7559 55324.1409 1201.9035 -1799145.8345 150677.3627 0.0000 0.0000 382572.9673 -1138617.4672 349.8646 -1521190.4344 -1140946.1462 349.8646
ENERGY: 3125 14884.3322 69076.3641 56631.9892 1436.1732 -1732600.3933 140059.9631 0.0000 0.0000 312151.1896 -1138360.3819 285.4636 -1450511.5715 -1137992.5157 293.2544
ENERGY: 3250 15175.0479 69725.9214 56489.5776 1427.8296 -1727490.2286 135509.2507 0.0000 0.0000 310817.7980 -1138344.8033 284.2442 -1449162.6014 -1137998.6884 284.6613
ENERGY: 3375 15083.4718 68631.5504 56594.4499 1430.0085 -1727535.6628 134983.9474 0.0000 0.0000 312444.7333 -1138367.5016 285.7320 -1450812.2349 -1137998.3681 285.0889
ENERGY: 3500 14812.5323 68449.4200 56663.4270 1406.7717 -1728470.8077 135184.1796 0.0000 0.0000 382548.8195 -1069405.6575 349.8425 -1451954.4770 -1037413.0354 285.8934
TCL: Setting parameter reassignTemp to 400
TCL: Running for 500 steps
ETITLE: TS BOND ANGLE DIHED IMPRP ELECT VDW BOUNDARY MISC KINETIC TOTAL TEMP POTENTIAL TOTAL3 TEMPAVG
ENERGY: 3500 14812.5323 68449.4200 56663.4270 1406.7717 -1728470.8077 135184.1796 0.0000 0.0000 438637.2135 -1013317.2635 401.1356 -1451954.4770 -1015854.0153 401.1356
ENERGY: 3625 17239.2269 78429.2915 58249.0033 1656.5532 -1657230.6589 124445.5147 0.0000 0.0000 364139.0659 -1013072.0033 333.0067 -1377211.0692 -1012640.3591 342.8836
ENERGY: 3750 17276.4209 79329.4250 57944.9743 1573.2495 -1648054.7721 118658.7585 0.0000 0.0000 360214.6934 -1013057.2505 329.4179 -1373271.9439 -1012645.4760 330.5788
ENERGY: 3875 17135.4613 78263.7002 58063.1371 1626.8444 -1647254.2182 118596.2411 0.0000 0.0000 360498.2668 -1013070.5674 329.6772 -1373568.8341 -1012645.6628 329.7040
ENERGY: 4000 17105.0577 78370.7066 57895.4128 1642.1784 -1645619.9473 116772.5660 0.0000 0.0000 437348.0589 -936485.9669 399.9567 -1373834.0258 -900984.6170 330.0254
TCL: Setting parameter reassignTemp to 450
TCL: Running for 500 steps
ETITLE: TS BOND ANGLE DIHED IMPRP ELECT VDW BOUNDARY MISC KINETIC TOTAL TEMP POTENTIAL TOTAL3 TEMPAVG
ENERGY: 4000 17105.0577 78370.7066 57895.4128 1642.1784 -1645619.9473 116772.5660 0.0000 0.0000 491501.1771 -882332.8488 449.4799 -1373834.0258 -885140.3596 449.4799
ENERGY: 4125 19482.8801 88145.8128 59386.6574 1870.2183 -1577873.7823 110167.9215 0.0000 0.0000 416723.9334 -882096.3588 381.0958 -1298820.2922 -881608.9468 391.1006
ENERGY: 4250 19801.9299 88407.3141 59279.5488 1823.9530 -1568495.8617 105428.6525 0.0000 0.0000 411670.9799 -882083.4834 376.4749 -1293754.4633 -881612.5359 378.5030
ENERGY: 4375 19797.5152 87354.0120 59512.1828 1849.4030 -1565854.5374 103821.9621 0.0000 0.0000 411422.3637 -882097.0985 376.2475 -1293519.4623 -881612.3716 376.4684
ENERGY: 4500 19403.6851 87431.4296 59397.1415 1832.4252 -1564837.8941 103172.9493 0.0000 0.0000 491719.2479 -801881.0154 449.6794 -1293600.2633 -764616.7418 376.3255
TCL: Setting parameter reassignTemp to 500
TCL: Running for 500 steps
ETITLE: TS BOND ANGLE DIHED IMPRP ELECT VDW BOUNDARY MISC KINETIC TOTAL TEMP POTENTIAL TOTAL3 TEMPAVG
ENERGY: 4500 19403.6851 87431.4296 59397.1415 1832.4252 -1564837.8941 103172.9493 0.0000 0.0000 547500.7213 -746099.5420 500.6917 -1293600.2633 -749010.1597 500.6917
ENERGY: 4625 21776.3138 96927.8472 61014.4877 2110.9859 -1500019.2547 99959.5069 0.0000 0.0000 472357.4909 -745872.6223 431.9729 -1218230.1132 -745323.9904 441.6011
ENERGY: 4750 22097.1621 97113.1841 61024.1517 1977.3708 -1490813.1806 95196.0388 0.0000 0.0000 467548.3649 -745856.9083 427.5750 -1213405.2732 -745327.4822 429.7390
ENERGY: 4875 21706.1212 96529.7415 61241.0432 2025.6771 -1487990.2470 92853.8146 0.0000 0.0000 467762.3946 -745871.4550 427.7707 -1213633.8495 -745328.0122 427.6802
ENERGY: 5000 21684.3717 96677.8653 61006.7902 2070.5604 -1486238.4835 92308.5737 0.0000 0.0000 545523.3492 -666966.9730 498.8834 -1212490.3223 -630251.4650 427.5871
TCL: Setting parameter reassignTemp to 550
TCL: Running for 500 steps
ETITLE: TS BOND ANGLE DIHED IMPRP ELECT VDW BOUNDARY MISC KINETIC TOTAL TEMP POTENTIAL TOTAL3 TEMPAVG
ENERGY: 5000 21684.3717 96677.8653 61006.7902 2070.5604 -1486238.4835 92308.5737 0.0000 0.0000 600347.0624 -612143.2599 549.0199 -1212490.3223 -614946.4452 549.0199
ENERGY: 5125 23676.5962 105524.5214 62603.8349 2214.1280 -1428642.6934 92340.2751 0.0000 0.0000 530358.5695 -611924.7682 485.0152 -1142283.3378 -611320.5509 493.6440
ENERGY: 5250 24075.9385 105823.4611 62641.3642 2246.0186 -1419860.9720 87738.3773 0.0000 0.0000 525420.9129 -611914.8994 480.4997 -1137335.8124 -611322.4713 482.5729
ENERGY: 5375 24060.5883 104956.0310 62591.6089 2271.0693 -1417604.4588 87143.3491 0.0000 0.0000 524658.3047 -611923.5076 479.8023 -1136581.8123 -611322.4173 480.6393
ENERGY: 5500 23812.3934 105390.8272 62731.6692 2179.9081 -1415336.3265 86198.6514 0.0000 0.0000 601456.4144 -533566.4629 550.0345 -1135022.8773 -497079.4830 479.5817
TCL: Setting parameter reassignTemp to 600
TCL: Running for 2500 steps
ETITLE: TS BOND ANGLE DIHED IMPRP ELECT VDW BOUNDARY MISC KINETIC TOTAL TEMP POTENTIAL TOTAL3 TEMPAVG
ENERGY: 5500 23812.3934 105390.8272 62731.6692 2179.9081 -1415336.3265 86198.6514 0.0000 0.0000 655604.5828 -479418.2945 599.5532 -1135022.8773 -482146.9024 599.5532
ENERGY: 6000 25846.4340 114776.9530 64481.4693 2409.2857 -1349176.8417 80744.9817 0.0000 0.0000 656726.8550 -404190.8630 600.5795 -1060917.7180 -369200.0732 533.4274
ENERGY: 6500 27205.4251 118409.4208 65553.4035 2585.2850 -1311309.9811 77759.9339 0.0000 0.0000 653897.1142 -365899.3987 597.9917 -1019796.5129 -347657.0752 563.7779
ENERGY: 7000 27776.8952 120720.2651 65639.4268 2603.7389 -1289606.8953 75688.5902 0.0000 0.0000 656546.9195 -340631.0595 600.4150 -997177.9790 -328427.7946 577.8016
ENERGY: 7500 28109.8786 121597.1716 66197.7601 2684.3636 -1273484.6196 73435.6051 0.0000 0.0000 656971.6966 -324488.1441 600.8034 -981459.8407 -316431.4568 586.3607
ENERGY: 8000 27686.4923 122181.7852 66382.3099 2604.9879 -1261275.0476 72409.9546 0.0000 0.0000 655816.9271 -314192.5905 599.7474 -970009.5176 -308754.8087 590.4947
TCL: Setting parameter reassignTemp to 600
TCL: Running for 5500 steps
ETITLE: TS BOND ANGLE DIHED IMPRP ELECT VDW BOUNDARY MISC KINETIC TOTAL TEMP POTENTIAL TOTAL3 TEMPAVG
ENERGY: 8000 27686.4923 122181.7852 66382.3099 2604.9879 -1261275.0476 72409.9546 0.0000 0.0000 655892.2228 -314117.2947 599.8162 -970009.5176 -313839.3628 599.8162
ENERGY: 9125 28420.0108 123239.2014 66499.3679 2635.9724 -1244751.4212 70722.9589 0.0000 0.0000 655251.1899 -297982.7199 599.2300 -953233.9098 -297264.5514 598.3639
ENERGY: 10250 28404.0662 123703.6005 66788.6191 2606.6863 -1233643.2375 68233.1264 0.0000 0.0000 652567.5777 -291339.5614 596.7758 -943907.1391 -290627.2033 597.8646
ENERGY: 11250 28338.8984 123172.2527 66720.2951 2567.8756 -1221625.3994 64901.9360 0.0000 0.0000 655562.1548 -280361.9868 599.5144 -935924.1417 -279641.9863 599.5401
ENERGY: 12375 28561.1791 123055.5351 66836.8530 2570.6639 -1214406.2469 64090.8236 0.0000 0.0000 653748.1902 -275543.0020 597.8555 -929291.1922 -274827.8498 597.9720
ENERGY: 13500 28368.8442 124155.2564 66973.2503 2759.3494 -1206880.7848 62305.6703 0.0000 0.0000 656593.3184 -265725.0959 600.4574 -922318.4143 -263438.2164 598.2007
TCL: Setting parameter reassignTemp to 550
TCL: Running for 5500 steps
ETITLE: TS BOND ANGLE DIHED IMPRP ELECT VDW BOUNDARY MISC KINETIC TOTAL TEMP POTENTIAL TOTAL3 TEMPAVG
ENERGY: 13500 28368.8442 124155.2564 66973.2503 2759.3494 -1206880.7848 62305.6703 0.0000 0.0000 600873.9195 -321444.4948 549.5018 -922318.4143 -320853.1029 549.5018
ENERGY: 14625 26821.3635 115860.6407 65951.1774 2501.5826 -1242352.7859 63915.2534 0.0000 0.0000 608392.0483 -358910.7200 556.3771 -967302.7683 -358248.7709 555.3729
ENERGY: 15750 26448.2466 115856.5900 65592.4862 2436.3166 -1245579.1476 64714.8087 0.0000 0.0000 603695.4993 -366835.2003 552.0821 -970530.6996 -366176.9111 552.4138
ENERGY: 16750 26313.2912 114840.4174 65373.8688 2454.3367 -1244809.5916 63961.4362 0.0000 0.0000 602826.8088 -369039.4327 551.2877 -971866.2415 -368385.2240 550.5044
ENERGY: 17875 26549.2861 115195.1576 65889.5516 2512.3145 -1240382.2400 63136.0431 0.0000 0.0000 600888.9626 -366210.9244 549.5155 -967099.8870 -365562.2357 550.3967
ENERGY: 19000 26481.8117 115424.4086 65677.2776 2443.7298 -1238540.2933 62048.4520 0.0000 0.0000 601603.9272 -364860.6864 550.1694 -966464.6136 -363869.9211 549.9695
TCL: Setting parameter reassignTemp to 500
TCL: Running for 5500 steps
ETITLE: TS BOND ANGLE DIHED IMPRP ELECT VDW BOUNDARY MISC KINETIC TOTAL TEMP POTENTIAL TOTAL3 TEMPAVG
ENERGY: 19000 26481.8117 115424.4086 65677.2776 2443.7298 -1238540.2933 62048.4520 0.0000 0.0000 546888.1993 -419576.4143 500.1316 -966464.6136 -418937.0278 500.1316
ENERGY: 20125 24717.3530 107109.2076 64157.3342 2209.5102 -1284714.9190 66805.9804 0.0000 0.0000 554271.0478 -465444.4858 506.8832 -1019715.5335 -464844.7655 505.7521
ENERGY: 21250 24386.5662 106404.6341 63820.8889 2252.7002 -1289708.5059 65929.8739 0.0000 0.0000 549681.0496 -477232.7929 502.6857 -1026913.8425 -476640.0266 502.8751
ENERGY: 22250 24344.1571 106241.9530 63695.9697 2306.7231 -1293765.6332 66743.4188 0.0000 0.0000 548030.8939 -482402.5176 501.1766 -1030433.4116 -481808.7494 501.3911
ENERGY: 23375 24095.5264 105960.9642 63792.9760 2263.8813 -1294939.5400 66121.3188 0.0000 0.0000 548542.5061 -484162.3672 501.6445 -1032704.8733 -483564.7071 500.9981
ENERGY: 24500 24262.2409 106184.1655 63772.9645 2288.2771 -1297786.6449 68251.8263 0.0000 0.0000 546422.5377 -486604.6329 499.7057 -1033027.1706 -486779.6611 501.5433
TCL: Setting parameter reassignTemp to 450
TCL: Running for 5500 steps
ETITLE: TS BOND ANGLE DIHED IMPRP ELECT VDW BOUNDARY MISC KINETIC TOTAL TEMP POTENTIAL TOTAL3 TEMPAVG
ENERGY: 24500 24262.2409 106184.1655 63772.9645 2288.2771 -1297786.6449 68251.8263 0.0000 0.0000 491182.0768 -541845.0938 449.1881 -1033027.1706 -541151.6749 449.1881
ENERGY: 25625 22080.3513 97995.9869 62159.8072 2031.1345 -1346703.7429 70952.9021 0.0000 0.0000 500662.3545 -590821.2065 457.8579 -1091483.5609 -590274.2997 456.3616
ENERGY: 26750 21977.1275 97173.0307 62196.3599 2058.3536 -1360641.3497 73558.7370 0.0000 0.0000 495000.1551 -608677.5860 452.6798 -1103677.7411 -608136.1058 452.6587
ENERGY: 27750 22158.8725 96909.9867 62018.0411 1996.1860 -1368202.9565 75292.8152 0.0000 0.0000 493470.7957 -616356.2593 451.2811 -1109827.0550 -615816.4344 450.9135
ENERGY: 28875 21939.7515 96607.8537 61904.4729 2046.0256 -1369465.7842 74518.9957 0.0000 0.0000 493327.9049 -619120.7800 451.1505 -1112448.6849 -618575.6201 450.9208
ENERGY: 30000 22273.4644 96946.1007 61919.1956 2058.1914 -1372959.9318 75230.7994 0.0000 0.0000 490963.6488 -623568.5315 448.9884 -1114532.1803 -623907.6011 450.9726
TCL: Setting parameter reassignTemp to 400
TCL: Running for 5500 steps
ETITLE: TS BOND ANGLE DIHED IMPRP ELECT VDW BOUNDARY MISC KINETIC TOTAL TEMP POTENTIAL TOTAL3 TEMPAVG
ENERGY: 30000 22273.4644 96946.1007 61919.1956 2058.1914 -1372959.9318 75230.7994 0.0000 0.0000 437451.0814 -677081.0989 400.0509 -1114532.1803 -676442.8923 400.0509
ENERGY: 31125 20242.4283 89417.9981 60350.3281 1863.9253 -1428452.9123 80580.4699 0.0000 0.0000 448494.0126 -727503.7501 410.1497 -1175997.7626 -727012.9988 408.1537
ENERGY: 32250 19925.5213 88600.3454 60285.6491 1874.5327 -1444547.3498 83092.9547 0.0000 0.0000 442270.1074 -748498.2393 404.4579 -1190768.3466 -748010.3277 404.3780
ENERGY: 33250 19938.2466 88324.7749 60062.0584 1862.6006 -1452258.4751 84023.3027 0.0000 0.0000 439408.0537 -758639.4382 401.8405 -1198047.4919 -758153.8055 401.9487
ENERGY: 34375 19755.2395 87526.2399 60022.8801 1846.0796 -1458556.0599 84674.4582 0.0000 0.0000 439778.6024 -764952.5602 402.1794 -1204731.1626 -764464.0421 401.3553
ENERGY: 35500 19743.0955 87831.9708 59935.9002 1873.7017 -1461374.1803 84803.5205 0.0000 0.0000 436379.3310 -770806.6606 399.0708 -1207185.9916 -771335.4169 400.7638
TCL: Setting parameter reassignTemp to 350
TCL: Running for 5500 steps
ETITLE: TS BOND ANGLE DIHED IMPRP ELECT VDW BOUNDARY MISC KINETIC TOTAL TEMP POTENTIAL TOTAL3 TEMPAVG
ENERGY: 35500 19743.0955 87831.9708 59935.9002 1873.7017 -1461374.1803 84803.5205 0.0000 0.0000 383219.3209 -823966.6707 350.4557 -1207185.9916 -823366.9740 350.4557
ENERGY: 36625 17987.9644 80462.5717 58215.1527 1658.5185 -1526818.9431 95013.7619 0.0000 0.0000 394444.2099 -879036.7640 360.7209 -1273480.9739 -878601.1590 359.1991
ENERGY: 37750 17857.5690 79265.4055 58195.0015 1630.2206 -1542998.1770 96469.0990 0.0000 0.0000 387980.4373 -901600.4442 354.8098 -1289580.8815 -901166.1502 354.9856
ENERGY: 38750 17771.3959 78562.9399 57818.5219 1613.4753 -1551608.6572 97350.6701 0.0000 0.0000 385629.4444 -912862.2098 352.6598 -1298491.6542 -912428.6242 352.3229
ENERGY: 39875 17683.5789 79540.3148 57859.3589 1602.7696 -1558567.8660 98403.6407 0.0000 0.0000 384615.0465 -918863.1567 351.7321 -1303478.2032 -918431.6248 352.0173
ENERGY: 41000 17742.9283 79201.3506 57725.3770 1649.8356 -1564163.5853 99980.7727 0.0000 0.0000 382410.0917 -925453.2295 349.7157 -1307863.3212 -925696.8614 351.1659
TCL: Setting parameter reassignTemp to 300
TCL: Running for 5500 steps
ETITLE: TS BOND ANGLE DIHED IMPRP ELECT VDW BOUNDARY MISC KINETIC TOTAL TEMP POTENTIAL TOTAL3 TEMPAVG
ENERGY: 41000 17742.9283 79201.3506 57725.3770 1649.8356 -1564163.5853 99980.7727 0.0000 0.0000 328614.5091 -979248.8121 300.5194 -1307863.3212 -978740.6830 300.5194
ENERGY: 42125 15753.1997 71796.2581 56288.2677 1490.9469 -1632956.2630 110171.3007 0.0000 0.0000 340566.9607 -1036889.3291 311.4499 -1377456.2898 -1036503.2139 309.6039
ENERGY: 43250 15726.6541 70557.1760 55956.2645 1393.9985 -1652851.3743 112876.9324 0.0000 0.0000 334899.4369 -1061440.9118 306.2670 -1396340.3487 -1061057.9688 306.0083
ENERGY: 44250 15633.1400 70181.2022 55909.6519 1405.5613 -1664500.7005 114803.1520 0.0000 0.0000 331146.4720 -1075421.5211 302.8349 -1406567.9931 -1075043.7299 302.4802
ENERGY: 45375 15594.1506 70315.6331 55866.0496 1452.3208 -1670828.3781 116012.2745 0.0000 0.0000 330539.8432 -1081048.1063 302.2801 -1411587.9495 -1080667.4684 302.2178
ENERGY: 46500 15600.2830 70108.9254 55718.9559 1425.2618 -1674351.8519 115847.5598 0.0000 0.0000 328754.4285 -1086896.4376 300.6473 -1415650.8661 -1087091.7906 301.4741
TCL: Setting parameter reassignTemp to 250
TCL: Running for 5500 steps
ETITLE: TS BOND ANGLE DIHED IMPRP ELECT VDW BOUNDARY MISC KINETIC TOTAL TEMP POTENTIAL TOTAL3 TEMPAVG
ENERGY: 46500 15600.2830 70108.9254 55718.9559 1425.2618 -1674351.8519 115847.5598 0.0000 0.0000 273260.4302 -1142390.4358 249.8978 -1415650.8661 -1141944.9321 249.8978
ENERGY: 47625 13570.3388 62409.0179 54329.4377 1254.4531 -1747688.3495 128477.6796 0.0000 0.0000 286977.8174 -1200669.6051 262.4424 -1487647.4225 -1200341.1731 260.2338
ENERGY: 48750 13489.0478 61449.6537 54236.5085 1256.9203 -1771348.5200 133823.1552 0.0000 0.0000 280765.1474 -1226328.0871 256.7609 -1507093.2344 -1226000.0876 256.5694
ENERGY: 49750 13451.1148 61652.2281 54083.9612 1259.5136 -1783637.5925 135812.3632 0.0000 0.0000 277277.2299 -1240101.1817 253.5712 -1517378.4116 -1239779.3416 253.3849
ENERGY: 50875 13424.7433 61288.9620 53967.7858 1233.1109 -1792632.3498 138140.7637 0.0000 0.0000 276030.2122 -1248546.7719 252.4308 -1524576.9840 -1248221.6893 252.1764
ENERGY: 52000 13427.2478 61627.6640 54020.2588 1201.6405 -1796647.5037 138772.7677 0.0000 0.0000 273402.2510 -1254195.6739 250.0275 -1527597.9250 -1254690.7097 251.9285
TCL: Setting parameter reassignTemp to 200
TCL: Running for 5500 steps
ETITLE: TS BOND ANGLE DIHED IMPRP ELECT VDW BOUNDARY MISC KINETIC TOTAL TEMP POTENTIAL TOTAL3 TEMPAVG
ENERGY: 52000 13427.2478 61627.6640 54020.2588 1201.6405 -1796647.5037 138772.7677 0.0000 0.0000 218993.9210 -1308604.0040 200.2709 -1527597.9250 -1308196.8253 200.2709
ENERGY: 53125 11637.0110 53737.7102 52526.6956 1048.5906 -1867288.1906 150419.0946 0.0000 0.0000 232299.1716 -1365619.9170 212.4386 -1597919.0886 -1365349.1196 210.4521
ENERGY: 54250 11318.1204 52992.4510 52295.2506 1013.4708 -1891546.6267 157408.2706 0.0000 0.0000 225351.7724 -1391167.2909 206.0852 -1616519.0633 -1390899.1494 205.6801
ENERGY: 55250 11226.8848 52818.9647 52126.2397 1034.5448 -1902208.6028 159573.8805 0.0000 0.0000 222041.5182 -1403386.5701 203.0579 -1625428.0883 -1403121.6132 203.1150
ENERGY: 56375 11265.1259 52568.6282 52181.5856 1004.4798 -1912003.1327 162552.3082 0.0000 0.0000 221706.9845 -1410724.0205 202.7520 -1632431.0050 -1410456.5055 202.1140
ENERGY: 57500 11207.4606 52468.2004 52256.1728 1009.8393 -1917399.8902 163854.0494 0.0000 0.0000 219157.4619 -1417446.7058 200.4204 -1636604.1677 -1417743.2554 201.5161
TCL: Setting parameter reassignTemp to 150
TCL: Running for 5500 steps
ETITLE: TS BOND ANGLE DIHED IMPRP ELECT VDW BOUNDARY MISC KINETIC TOTAL TEMP POTENTIAL TOTAL3 TEMPAVG
ENERGY: 57500 11207.4606 52468.2004 52256.1728 1009.8393 -1917399.8902 163854.0494 0.0000 0.0000 163810.1942 -1472793.9734 149.8051 -1636604.1677 -1472471.8396 149.8051
ENERGY: 58625 9452.0261 44927.8831 50700.4219 862.1858 -1981784.3366 175592.5648 0.0000 0.0000 176177.5068 -1524071.7481 161.1151 -1700249.2549 -1523861.7145 159.3024
ENERGY: 59750 9181.7584 44288.4663 50658.6965 884.6120 -1996349.1267 179240.2423 0.0000 0.0000 169150.0016 -1542945.3496 154.6884 -1712095.3512 -1542739.4435 154.6315
ENERGY: 60750 9130.9240 44060.1267 50562.2110 843.2273 -2004875.9757 182082.2225 0.0000 0.0000 166483.9447 -1551713.3195 152.2503 -1718197.2642 -1551508.9161 152.1672
ENERGY: 61875 9073.1720 43790.8582 50686.5938 850.4729 -2010427.6872 184282.7555 0.0000 0.0000 165412.5686 -1556331.2663 151.2705 -1721743.8349 -1556130.1293 151.3516
ENERGY: 63000 9141.5896 43776.2733 50656.6719 817.0872 -2014416.4583 185874.0569 0.0000 0.0000 164088.4584 -1560062.3209 150.0596 -1724150.7793 -1560322.6848 151.1612
TCL: Setting parameter reassignTemp to 100
TCL: Running for 5500 steps
ETITLE: TS BOND ANGLE DIHED IMPRP ELECT VDW BOUNDARY MISC KINETIC TOTAL TEMP POTENTIAL TOTAL3 TEMPAVG
ENERGY: 63000 9141.5896 43776.2733 50656.6719 817.0872 -2014416.4583 185874.0569 0.0000 0.0000 109205.4818 -1614945.2974 99.8689 -1724150.7793 -1614697.4406 99.8689
ENERGY: 64125 7295.2758 36280.0129 49242.6634 661.6193 -2069018.0406 194328.8815 0.0000 0.0000 119799.7387 -1661409.8491 109.5574 -1781209.5877 -1661264.6405 108.2750
ENERGY: 65250 7072.3334 35424.4193 49163.6280 647.6719 -2078647.2878 197587.3841 0.0000 0.0000 113576.5309 -1675175.3203 103.8662 -1788751.8512 -1675032.4352 103.7796
ENERGY: 66250 7001.5409 35198.7346 49100.8592 655.2452 -2083012.7399 198904.7493 0.0000 0.0000 111292.4603 -1680859.1504 101.7774 -1792151.6107 -1680719.8173 101.8386
ENERGY: 67375 6992.6488 35179.2316 49119.2869 639.1853 -2086449.5048 200320.4528 0.0000 0.0000 110782.9150 -1683415.7845 101.3114 -1794198.6994 -1683277.9390 101.1502
ENERGY: 68500 7082.7316 35020.7263 49207.9065 646.3740 -2088579.0884 201570.2853 0.0000 0.0000 109195.1459 -1685855.9187 99.8594 -1795051.0646 -1686143.9187 100.8502
TCL: Setting parameter reassignTemp to 50
TCL: Running for 5500 steps
ETITLE: TS BOND ANGLE DIHED IMPRP ELECT VDW BOUNDARY MISC KINETIC TOTAL TEMP POTENTIAL TOTAL3 TEMPAVG
ENERGY: 68500 7082.7316 35020.7263 49207.9065 646.3740 -2088579.0884 201570.2853 0.0000 0.0000 54698.3018 -1740352.7628 50.0218 -1795051.0646 -1740176.3362 50.0218
ENERGY: 69625 5184.8822 27768.5751 47884.8574 479.0856 -2137119.1310 208873.0300 0.0000 0.0000 64615.4333 -1782313.2674 59.0911 -1846928.7007 -1782233.7917 58.1515
ENERGY: 70750 4992.6908 26964.2277 47829.8465 464.9397 -2143177.9559 210765.7618 0.0000 0.0000 59047.4139 -1793113.0756 53.9991 -1852160.4895 -1793035.1882 54.0504
ENERGY: 71750 4898.6613 26711.6256 47824.5752 461.6454 -2146751.2107 212338.3862 0.0000 0.0000 57087.8765 -1797428.4405 52.2071 -1854516.3170 -1797353.3502 52.2328
ENERGY: 72875 4905.9860 26651.5729 47785.7144 455.1668 -2148504.0621 212881.9075 0.0000 0.0000 56192.2568 -1799631.4577 51.3881 -1855823.7144 -1799560.2533 51.3745
ENERGY: 74000 4963.6895 26855.8308 47809.2049 474.0897 -2149407.4749 213350.7162 0.0000 0.0000 54667.7216 -1801286.2222 49.9939 -1855953.9438 -1801389.4268 50.8787
TCL: Setting parameter reassignTemp to 0
TCL: Running for 5500 steps
ETITLE: TS BOND ANGLE DIHED IMPRP ELECT VDW BOUNDARY MISC KINETIC TOTAL TEMP POTENTIAL TOTAL3 TEMPAVG
ENERGY: 74000 4963.6895 26855.8308 47809.2049 474.0897 -2149407.4749 213350.7162 0.0000 0.0000 0.0000 -1855953.9438 0.0000 -1855953.9438 -1855872.4196 0.0000
ENERGY: 75125 3130.0727 19343.1255 46642.4256 300.6590 -2193589.7468 219899.9129 0.0000 0.0000 11036.9221 -1893236.6290 10.0933 -1904273.5510 -1893223.9000 9.2568
ENERGY: 76250 2912.4397 18576.4711 46589.1902 294.3160 -2196682.7497 221111.1524 0.0000 0.0000 7145.4914 -1900053.6890 6.5346 -1907199.1804 -1900037.8594 6.4781
ENERGY: 77250 2859.1926 18362.2982 46566.4204 289.7489 -2198868.9578 222032.3721 0.0000 0.0000 5656.5354 -1903102.3902 5.1729 -1908758.9256 -1903089.1266 5.1123
ENERGY: 78375 2890.9941 18451.7056 46539.2789 288.7690 -2200741.7727 222700.9925 0.0000 0.0000 4944.3181 -1904925.7144 4.5216 -1909870.0325 -1904918.4715 4.3071
ENERGY: 79500 3053.6661 19170.6144 46663.4482 306.4363 -2197925.0601 222090.9614 0.0000 0.0000 0.0000 -1906639.9337 0.0000 -1906639.9337 -1906854.4620 3.5849
TCL: Setting parameter cellBasisVector1 to 155.084877 0.0 0.0
