-------------------------------------------------------
          Amber 18 PMEMD                              2018
          -------------------------------------------------------

  [-O]verwriting output

File Assignments:

 Here is the input file:

equil NVT 5ns
 &cntrl
  imin=0,
  ntpr   = 10000,    ntwx   = 10000,
  ntwr   = 10000,
  iwrap=1,
  ntx=5, irest=1,
  ntf    = 2,       ntb    = 1,
  ntc    = 2,       cut    = 9.0,
  nstlim = 2500000,
  dt     = 0.002,
  nscm   = 1000,
  temp0  = 300.0,
  ntt    = 3, gamma_ln = 2.0,
  ntr=1, restraint_wt=100,
  restraintmask="!:WAT",
  ig=-1,
  ioutfm=1,
 /

Note: ig = -1. Setting random seed to   669145 based on wallclock time in
      microseconds.

--------------------------------------------------------------------------------
   1.  RESOURCE   USE:
--------------------------------------------------------------------------------

 getting box info from netcdf restart file
 NATOM  =  840087 NTYPES =      37 NBONH =  824043 MBONA  =   14860
 NTHETH =  301485 MTHETA =   20216 NPHIH =   52900 MPHIA  =   37772
 NHPARM =       0 NPARM  =       0 NNB   = 1238328 NRES   =  273473
 NBONA  =   14860 NTHETA =   20216 NPHIA =   37772 NUMBND =      74
 NUMANG =     166 NPTRA  =     365 NATYP =       0 NPHB   =       0
 IFBOX  =       1 NMXRS  =      24 IFCAP =       0 NEXTRA =       0
 NCOPY  =       0

     BOX TYPE: RECTILINEAR

--------------------------------------------------------------------------------
   2.  CONTROL  DATA  FOR  THE  RUN
--------------------------------------------------------------------------------

General flags:
     imin    =       0, nmropt  =       0

Nature and format of input:
     ntx     =       5, irest   =       1, ntrx    =       1

Nature and format of output:
     ntxo    =       2, ntpr    =   10000, ntrx    =       1, ntwr    =   10000
     iwrap   =       1, ntwx    =   10000, ntwv    =       0, ntwe    =       0
     ioutfm  =       1, ntwprt  =       0, idecomp =       0, rbornstat=      0

Potential function:
     ntf     =       2, ntb     =       1, igb     =       0, nsnb    =      25
     ipol    =       0, gbsa    =       0, iesp    =       0
     dielc   =   1.00000, cut     =   9.00000, intdiel =   1.00000

Frozen or restrained atoms:
     ibelly  =       0, ntr     =       1
     restraint_wt = 100.00000

Molecular dynamics:
     nstlim  =   2500000, nscm    =         0, nrespa  =         1
     t       =   0.00000, dt      =   0.00200, vlimit  =  -1.00000

Langevin dynamics temperature regulation:
     ig      =  669145
     temp0   = 300.00000, tempi   =   0.00000, gamma_ln=   2.00000

SHAKE:
     ntc     =       2, jfastw  =       0
     tol     =   0.00001

Ewald parameters:
     verbose =       0, ew_type =       0, nbflag  =       1, use_pme =       1
     vdwmeth =       1, eedmeth =       1, netfrc  =       1
     Box X =  203.764   Box Y =  203.764   Box Z =  203.764
     Alpha =   90.000   Beta  =   90.000   Gamma =   90.000
     NFFT1 =  216       NFFT2 =  216       NFFT3 =  216
     Cutoff=    9.000   Tol   =0.100E-04
     Ewald Coefficient =  0.30768
     Interpolation order =    4

    LOADING THE CONSTRAINED ATOMS AS GROUPS

   5.  REFERENCE ATOM COORDINATES

     Mask !:WAT; matches 29940 atoms

--------------------------------------------------------------------------------
   3.  ATOMIC COORDINATES AND VELOCITIES
--------------------------------------------------------------------------------

 begin time read from input coords = 10040.000 ps

 Number of triangulated 3-point waters found:   270049

     Sum of charges from parm topology file =   0.00000000
     Forcing neutrality...

--------------------------------------------------------------------------------
   4.  RESULTS
 NSTEP =    10000   TIME(PS) =   10060.000  TEMP(K) =   300.04  PRESS =     0.0
 Etot   =  -2277145.2807  EKtot   =    505665.5938  EPtot      =  -2782810.8744
 BOND   =      5307.4225  ANGLE   =     12085.9047  DIHED      =     17842.9354
 UB     =      1431.3734  IMP     =       806.1755  CMAP       =         0.0000
 1-4 NB =      4953.9521  1-4 EEL =     87051.2782  VDWAALS    =    276574.4269
 EELEC  =  -3205518.1479  EHBOND  =         0.0000  RESTRAINT  =     16653.8046
 EAMBER (non-restraint)  =  -2799464.6790
 ------------------------------------------------------------------------------

      A V E R A G E S   O V E R     250 S T E P S

 NSTEP =  2500000   TIME(PS) =   15040.000  TEMP(K) =   300.00  PRESS =     0.0
 Etot   =  -2278142.7829  EKtot   =    505609.8426  EPtot      =  -2783752.6255
 BOND   =      5283.1869  ANGLE   =     12045.2970  DIHED      =     17813.5844
 UB     =      1425.1337  IMP     =       811.4695  CMAP       =         0.0000
 1-4 NB =      4955.2821  1-4 EEL =     87057.7272  VDWAALS    =    277368.3301
 EELEC  =  -3207229.3343  EHBOND  =         0.0000  RESTRAINT  =     16716.6978
 EAMBER (non-restraint)  =  -2800469.3233
 ------------------------------------------------------------------------------

      R M S  F L U C T U A T I O N S

 NSTEP =  2500000   TIME(PS) =   15040.000  TEMP(K) =     0.35  PRESS =     0.0
 Etot   =       957.6385  EKtot   =       587.5197  EPtot      =       741.9640
 BOND   =        50.8690  ANGLE   =        63.7539  DIHED      =        19.3348
 UB     =        13.3039  IMP     =        16.6493  CMAP       =         0.0000
 1-4 NB =        18.1291  1-4 EEL =        49.8771  VDWAALS    =       751.1922
 EELEC  =      1136.9542  EHBOND  =         0.0000  RESTRAINT  =        89.6826
 EAMBER (non-restraint)  =       652.2813
 ------------------------------------------------------------------------------
