-------------------------------------------------------
          Amber 18 PMEMD                              2018
          -------------------------------------------------------

  [-O]verwriting output

File Assignments:

 Here is the input file:

NTP 10ns
 &cntrl
  imin=0,
  ntpr   = 10000,    ntwx   = 10000,
  ntwr   = 10000,
  iwrap=1,
  ntx=5, irest=1,
  ntf    = 2,       ntb    = 2,
  ntc    = 2,       cut    = 10.0,
  nstlim = 5000000,
  dt     = 0.002,
  nscm   = 1000,
  temp0  = 300.0, tempi = 300.0,
  ntt    = 3, gamma_ln = 2.0,
  ntp    = 1, taup   = 0.5,
  ntr=1, restraint_wt=100,
  restraintmask="!:WAT  & !@H=",
  ig=-1,
  ioutfm=1,
 /

Note: ig = -1. Setting random seed to   810165 based on wallclock time in
      microseconds.

--------------------------------------------------------------------------------
   1.  RESOURCE   USE:
--------------------------------------------------------------------------------

 getting box info from netcdf restart file
 NATOM  =  840087 NTYPES =      37 NBONH =  824043 MBONA  =   14860
 NTHETH =  301485 MTHETA =   20216 NPHIH =   52900 MPHIA  =   37772
 NHPARM =       0 NPARM  =       0 NNB   = 1238328 NRES   =  273473
 NBONA  =   14860 NTHETA =   20216 NPHIA =   37772 NUMBND =      74
 NUMANG =     166 NPTRA  =     365 NATYP =       0 NPHB   =       0
 IFBOX  =       1 NMXRS  =      24 IFCAP =       0 NEXTRA =       0
 NCOPY  =       0

     BOX TYPE: RECTILINEAR

--------------------------------------------------------------------------------
   2.  CONTROL  DATA  FOR  THE  RUN
--------------------------------------------------------------------------------

General flags:
     imin    =       0, nmropt  =       0

Nature and format of input:
     ntx     =       5, irest   =       1, ntrx    =       1

Nature and format of output:
     ntxo    =       2, ntpr    =   10000, ntrx    =       1, ntwr    =   10000
     iwrap   =       1, ntwx    =   10000, ntwv    =       0, ntwe    =       0
     ioutfm  =       1, ntwprt  =       0, idecomp =       0, rbornstat=      0

Potential function:
     ntf     =       2, ntb     =       2, igb     =       0, nsnb    =      25
     ipol    =       0, gbsa    =       0, iesp    =       0
     dielc   =   1.00000, cut     =  10.00000, intdiel =   1.00000

Frozen or restrained atoms:
     ibelly  =       0, ntr     =       1
     restraint_wt = 100.00000

Molecular dynamics:
     nstlim  =   5000000, nscm    =         0, nrespa  =         1
     t       =   0.00000, dt      =   0.00200, vlimit  =  -1.00000

Langevin dynamics temperature regulation:
     ig      =  810165
     temp0   = 300.00000, tempi   = 300.00000, gamma_ln=   2.00000

Pressure regulation:
     ntp     =       1
     pres0   =   1.00000, comp    =  44.60000, taup    =   0.50000

SHAKE:
     ntc     =       2, jfastw  =       0
     tol     =   0.00001

Ewald parameters:
     verbose =       0, ew_type =       0, nbflag  =       1, use_pme =       1
     vdwmeth =       1, eedmeth =       1, netfrc  =       1
     Box X =  204.226   Box Y =  204.226   Box Z =  204.226
     Alpha =   90.000   Beta  =   90.000   Gamma =   90.000
     NFFT1 =  216       NFFT2 =  216       NFFT3 =  216
     Cutoff=   10.000   Tol   =0.100E-04
     Ewald Coefficient =  0.27511
     Interpolation order =    4

    LOADING THE CONSTRAINED ATOMS AS GROUPS

   5.  REFERENCE ATOM COORDINATES

     Mask !:WAT  & !@H=; matches 16044 atoms

--------------------------------------------------------------------------------
   3.  ATOMIC COORDINATES AND VELOCITIES
--------------------------------------------------------------------------------

 begin time read from input coords =    40.000 ps

 Number of triangulated 3-point waters found:   270049

     Sum of charges from parm topology file =   0.00000000
     Forcing neutrality...

--------------------------------------------------------------------------------
   4.  RESULTS
 NSTEP =    10000   TIME(PS) =      60.000  TEMP(K) =   299.83  PRESS =    13.4
 Etot   =  -2290624.6607  EKtot   =    505323.9688  EPtot      =  -2795948.6295
 BOND   =      5499.3403  ANGLE   =     12976.6822  DIHED      =     17952.9810
 UB     =      1605.5906  IMP     =       856.5311  CMAP       =         0.0000
 1-4 NB =      4970.5328  1-4 EEL =     86953.2765  VDWAALS    =    273532.8218
 EELEC  =  -3208751.8643  EHBOND  =         0.0000  RESTRAINT  =      8455.4785
 EAMBER (non-restraint)  =  -2804404.1080
 EKCMT  =    243225.6098  VIRIAL  =    240776.1807  VOLUME     =   8454882.8988
                                                    Density    =         1.0049
 ------------------------------------------------------------------------------

      A V E R A G E S   O V E R     500 S T E P S

 NSTEP =  5000000   TIME(PS) =   10040.000  TEMP(K) =   299.99  PRESS =     0.7
 Etot   =  -2289405.6085  EKtot   =    505585.4984  EPtot      =  -2794991.1069
 BOND   =      5331.7311  ANGLE   =     13038.4482  DIHED      =     17953.3754
 UB     =      1597.1941  IMP     =       835.3684  CMAP       =         0.0000
 1-4 NB =      4979.0097  1-4 EEL =     86984.2509  VDWAALS    =    273217.9369
 EELEC  =  -3207490.9612  EHBOND  =         0.0000  RESTRAINT  =      8562.5397
 EAMBER (non-restraint)  =  -2803553.6467
 EKCMT  =    243623.6016  VIRIAL  =    243498.3269  VOLUME     =   8454508.1295
                                                    Density    =         1.0050
 ------------------------------------------------------------------------------

      R M S  F L U C T U A T I O N S

 NSTEP =  5000000   TIME(PS) =   10040.000  TEMP(K) =     0.32  PRESS =    24.0
 Etot   =       983.9440  EKtot   =       542.1492  EPtot      =       757.1414
 BOND   =        57.2634  ANGLE   =        74.2065  DIHED      =        32.0846
 UB     =        16.6511  IMP     =        17.8861  CMAP       =         0.0000
 1-4 NB =        23.2938  1-4 EEL =        68.1538  VDWAALS    =       639.2901
 EELEC  =      1093.1632  EHBOND  =         0.0000  RESTRAINT  =        57.9884
 EAMBER (non-restraint)  =       699.1530
 EKCMT  =       358.4085  VIRIAL  =      4403.8849  VOLUME     =      2404.5043
                                                    Density    =         0.0003
 ------------------------------------------------------------------------------
