-------------------------------------------------------
          Amber 18 PMEMD                              2018
          -------------------------------------------------------

  [-O]verwriting output

File Assignments:

 Here is the input file:

heat NPT 200ps
 &cntrl
  imin = 0,
  irest = 1, ntx = 5,
  ntb = 2, ntc = 2, ntf = 2,
  cut = 9.0,
  temp0 = 300.0,
  ntt = 3, gamma_ln = 2.0,
  nstlim = 10000, dt = 0.002,
  ntp = 1, taup = 0.5,
  iwrap = 1,
  ntpr = 1000, ntwx = 1000, ntwr = 10000,
  nscm = 1000,
  ntr=1, restraint_wt=100,
  restraintmask='!:WAT & !@H',
  ig=-1,
  ioutfm=1,
 /

Note: ig = -1. Setting random seed to   635980 based on wallclock time in
      microseconds.

--------------------------------------------------------------------------------
   1.  RESOURCE   USE:
--------------------------------------------------------------------------------

 getting box info from netcdf restart file
 NATOM  =  840087 NTYPES =      37 NBONH =  824043 MBONA  =   14860
 NTHETH =  301485 MTHETA =   20216 NPHIH =   52900 MPHIA  =   37772
 NHPARM =       0 NPARM  =       0 NNB   = 1238328 NRES   =  273473
 NBONA  =   14860 NTHETA =   20216 NPHIA =   37772 NUMBND =      74
 NUMANG =     166 NPTRA  =     365 NATYP =       0 NPHB   =       0
 IFBOX  =       1 NMXRS  =      24 IFCAP =       0 NEXTRA =       0
 NCOPY  =       0

     BOX TYPE: RECTILINEAR

--------------------------------------------------------------------------------
   2.  CONTROL  DATA  FOR  THE  RUN
--------------------------------------------------------------------------------

General flags:
     imin    =       0, nmropt  =       0

Nature and format of input:
     ntx     =       5, irest   =       1, ntrx    =       1

Nature and format of output:
     ntxo    =       2, ntpr    =    1000, ntrx    =       1, ntwr    =   10000
     iwrap   =       1, ntwx    =    1000, ntwv    =       0, ntwe    =       0
     ioutfm  =       1, ntwprt  =       0, idecomp =       0, rbornstat=      0

Potential function:
     ntf     =       2, ntb     =       2, igb     =       0, nsnb    =      25
     ipol    =       0, gbsa    =       0, iesp    =       0
     dielc   =   1.00000, cut     =   9.00000, intdiel =   1.00000

Frozen or restrained atoms:
     ibelly  =       0, ntr     =       1
     restraint_wt = 100.00000

Molecular dynamics:
     nstlim  =     10000, nscm    =         0, nrespa  =         1
     t       =   0.00000, dt      =   0.00200, vlimit  =  -1.00000

Langevin dynamics temperature regulation:
     ig      =  635980
     temp0   = 300.00000, tempi   =   0.00000, gamma_ln=   2.00000

Pressure regulation:
     ntp     =       1
     pres0   =   1.00000, comp    =  44.60000, taup    =   0.50000

SHAKE:
     ntc     =       2, jfastw  =       0
     tol     =   0.00001

Ewald parameters:
     verbose =       0, ew_type =       0, nbflag  =       1, use_pme =       1
     vdwmeth =       1, eedmeth =       1, netfrc  =       1
     Box X =  207.000   Box Y =  207.000   Box Z =  207.000
     Alpha =   90.000   Beta  =   90.000   Gamma =   90.000
     NFFT1 =  216       NFFT2 =  216       NFFT3 =  216
     Cutoff=    9.000   Tol   =0.100E-04
     Ewald Coefficient =  0.30768
     Interpolation order =    4

    LOADING THE CONSTRAINED ATOMS AS GROUPS

   5.  REFERENCE ATOM COORDINATES

     Mask !:WAT & !@H; matches 29940 atoms

--------------------------------------------------------------------------------
   3.  ATOMIC COORDINATES AND VELOCITIES
--------------------------------------------------------------------------------

 begin time read from input coords =    20.000 ps

 Number of triangulated 3-point waters found:   270049

     Sum of charges from parm topology file =   0.00000000
     Forcing neutrality...

--------------------------------------------------------------------------------
   4.  RESULTS
 NSTEP =     1000   TIME(PS) =      22.000  TEMP(K) =   284.76  PRESS =  -111.6
 Etot   =  -2369120.7392  EKtot   =    479927.5312  EPtot      =  -2849048.2705
 BOND   =      5108.5558  ANGLE   =      9851.5913  DIHED      =     17029.7250
 UB     =      1069.2525  IMP     =       708.2551  CMAP       =         0.0000
 1-4 NB =      4688.2868  1-4 EEL =     86932.8895  VDWAALS    =    312309.3808
 EELEC  =  -3300637.4453  EHBOND  =         0.0000  RESTRAINT  =     13891.2381
 EAMBER (non-restraint)  =  -2862939.5085
 EKCMT  =    230617.3794  VIRIAL  =    251452.3654  VOLUME     =   8645062.1870
                                                    Density    =         0.9828
 ------------------------------------------------------------------------------

      A V E R A G E S   O V E R      10 S T E P S

 NSTEP =    10000   TIME(PS) =      40.000  TEMP(K) =   298.28  PRESS =   -11.1
 Etot   =  -2289215.4701  EKtot   =    502702.6188  EPtot      =  -2791918.0889
 BOND   =      5082.4809  ANGLE   =      9951.7635  DIHED      =     17047.0651
 UB     =      1077.0577  IMP     =       710.6921  CMAP       =         0.0000
 1-4 NB =      4688.7112  1-4 EEL =     87009.0730  VDWAALS    =    280601.6210
 EELEC  =  -3212312.7015  EHBOND  =         0.0000  RESTRAINT  =     14226.1482
 EAMBER (non-restraint)  =  -2806144.2370
 EKCMT  =    242088.8041  VIRIAL  =    244164.9008  VOLUME     =   8535496.0221
                                                    Density    =         0.9954
 ------------------------------------------------------------------------------

      R M S  F L U C T U A T I O N S

 NSTEP =    10000   TIME(PS) =      40.000  TEMP(K) =     4.54  PRESS =    36.0
 Etot   =     26716.7790  EKtot   =      7659.3543  EPtot      =     19092.4335
 BOND   =        38.0265  ANGLE   =        57.5469  DIHED      =        18.9817
 UB     =        10.5801  IMP     =        18.2585  CMAP       =         0.0000
 1-4 NB =        17.7606  1-4 EEL =        40.6031  VDWAALS    =     10628.5842
 EELEC  =     29534.7217  EHBOND  =         0.0000  RESTRAINT  =       126.2217
 EAMBER (non-restraint)  =     18966.2119
 EKCMT  =      3851.1264  VIRIAL  =      3217.8779  VOLUME     =     36939.0582
                                                    Density    =         0.0043
 ------------------------------------------------------------------------------
