-------------------------------------------------------
          Amber 18 PMEMD                              2018
          -------------------------------------------------------

  [-O]verwriting output

File Assignments:

 Here is the input file:

heat NVT 200ps
 &cntrl
  imin = 0,
  irest = 0, ntx = 1,
  ntb = 1, ntc = 2, ntf = 2,
  cut = 9.0,
  tempi = 0.0, temp0 = 50.0,
  ntt = 3, gamma_ln = 2.0,
  nstlim = 10000, dt = 0.002,
  iwrap = 1,
  ntpr = 1000, ntwx = 1000, ntwr = 10000,
  nscm = 1000,
  ntr=1, restraint_wt=100,
  restraintmask='!:WAT & !@H',
  ig=-1,
  ioutfm=1,
 /

Note: ig = -1. Setting random seed to   429601 based on wallclock time in
      microseconds.

--------------------------------------------------------------------------------
   1.  RESOURCE   USE:
--------------------------------------------------------------------------------

 getting box info from netcdf restart file
 NATOM  =  840087 NTYPES =      37 NBONH =  824043 MBONA  =   14860
 NTHETH =  301485 MTHETA =   20216 NPHIH =   52900 MPHIA  =   37772
 NHPARM =       0 NPARM  =       0 NNB   = 1238328 NRES   =  273473
 NBONA  =   14860 NTHETA =   20216 NPHIA =   37772 NUMBND =      74
 NUMANG =     166 NPTRA  =     365 NATYP =       0 NPHB   =       0
 IFBOX  =       1 NMXRS  =      24 IFCAP =       0 NEXTRA =       0
 NCOPY  =       0

     BOX TYPE: RECTILINEAR

--------------------------------------------------------------------------------
   2.  CONTROL  DATA  FOR  THE  RUN
--------------------------------------------------------------------------------

General flags:
     imin    =       0, nmropt  =       0

Nature and format of input:
     ntx     =       1, irest   =       0, ntrx    =       1

Nature and format of output:
     ntxo    =       2, ntpr    =    1000, ntrx    =       1, ntwr    =   10000
     iwrap   =       1, ntwx    =    1000, ntwv    =       0, ntwe    =       0
     ioutfm  =       1, ntwprt  =       0, idecomp =       0, rbornstat=      0

Potential function:
     ntf     =       2, ntb     =       1, igb     =       0, nsnb    =      25
     ipol    =       0, gbsa    =       0, iesp    =       0
     dielc   =   1.00000, cut     =   9.00000, intdiel =   1.00000

Frozen or restrained atoms:
     ibelly  =       0, ntr     =       1
     restraint_wt = 100.00000

Molecular dynamics:
     nstlim  =     10000, nscm    =         0, nrespa  =         1
     t       =   0.00000, dt      =   0.00200, vlimit  =  -1.00000

Langevin dynamics temperature regulation:
     ig      =  429601
     temp0   =  50.00000, tempi   =   0.00000, gamma_ln=   2.00000

SHAKE:
     ntc     =       2, jfastw  =       0
     tol     =   0.00001

Ewald parameters:
     verbose =       0, ew_type =       0, nbflag  =       1, use_pme =       1
     vdwmeth =       1, eedmeth =       1, netfrc  =       1
     Box X =  207.000   Box Y =  207.000   Box Z =  207.000
     Alpha =   90.000   Beta  =   90.000   Gamma =   90.000
     NFFT1 =  216       NFFT2 =  216       NFFT3 =  216
     Cutoff=    9.000   Tol   =0.100E-04
     Ewald Coefficient =  0.30768
     Interpolation order =    4

    LOADING THE CONSTRAINED ATOMS AS GROUPS

   5.  REFERENCE ATOM COORDINATES

     Mask !:WAT & !@H; matches 29940 atoms

--------------------------------------------------------------------------------
   3.  ATOMIC COORDINATES AND VELOCITIES
--------------------------------------------------------------------------------

 begin time read from input coords =     0.000 ps

 Number of triangulated 3-point waters found:   270049

     Sum of charges from parm topology file =   0.00000000
     Forcing neutrality...

--------------------------------------------------------------------------------
   4.  RESULTS
 NSTEP =        0   TIME(PS) =       0.000  TEMP(K) =     0.00  PRESS =     0.0
 Etot   =  -3733848.2197  EKtot   =         0.0000  EPtot      =  -3733848.2197
 BOND   =      1737.1762  ANGLE   =     75140.0509  DIHED      =     16421.1341
 UB     =       350.3904  IMP     =       176.9553  CMAP       =         0.0000
 1-4 NB =      4402.0954  1-4 EEL =     87063.9430  VDWAALS    =    504243.3783
 EELEC  =  -4423383.3433  EHBOND  =         0.0000  RESTRAINT  =         0.0000
 ------------------------------------------------------------------------------

      A V E R A G E S   O V E R      10 S T E P S

 NSTEP =    10000   TIME(PS) =      20.000  TEMP(K) =    50.37  PRESS =     0.0
 Etot   =  -3322677.4539  EKtot   =     84883.3344  EPtot      =  -3407560.7883
 BOND   =      2314.8638  ANGLE   =      5735.0730  DIHED      =     16509.6364
 UB     =       470.7381  IMP     =       260.2933  CMAP       =         0.0000
 1-4 NB =      4445.3719  1-4 EEL =     87044.0955  VDWAALS    =    456086.7849
 EELEC  =  -3982813.2081  EHBOND  =         0.0000  RESTRAINT  =      2385.5630
 EAMBER (non-restraint)  =  -3409946.3513
 ------------------------------------------------------------------------------

      R M S  F L U C T U A T I O N S

 NSTEP =    10000   TIME(PS) =      20.000  TEMP(K) =     0.39  PRESS =     0.0
 Etot   =     12599.0668  EKtot   =       651.4142  EPtot      =     11963.2672
 BOND   =        17.9136  ANGLE   =        15.2251  DIHED      =         5.1933
 UB     =         3.5227  IMP     =         4.0933  CMAP       =         0.0000
 1-4 NB =         7.7623  1-4 EEL =        16.5267  VDWAALS    =      5650.6262
 EELEC  =     17619.5000  EHBOND  =         0.0000  RESTRAINT  =        24.4024
 EAMBER (non-restraint)  =     11938.8648
 ------------------------------------------------------------------------------
