Info: SIMULATION PARAMETERS:
Info: TIMESTEP               1
Info: NUMBER OF STEPS        0
Info: STEPS PER CYCLE        20
Info: FIRST LDB TIMESTEP     100
Info: LAST LDB TIMESTEP     -1
Info: HOM BACKGROUND SCALING 1
Info: MIN ATOMS PER PATCH    40
Info: INITIAL TEMPERATURE    300
Info: CENTER OF MASS MOVING INITIALLY? NO
Info: DIELECTRIC             1
Info: EXCLUDE                SCALED ONE-FOUR
Info: 1-4 ELECTROSTATICS SCALED BY 1
Info: MODIFIED 1-4 VDW PARAMETERS WILL BE USED
Info: DCD FILENAME           relaxation.dcd
Info: DCD FREQUENCY          1000
Info: DCD FIRST STEP         1000
Info: DCD FILE WILL CONTAIN UNIT CELL DATA
Info: XST FILENAME           relaxation.xst
Info: XST FREQUENCY          1000
Info: NO VELOCITY DCD OUTPUT
Info: NO FORCE DCD OUTPUT
Info: OUTPUT FILENAME        relaxation
Info: BINARY OUTPUT FILES WILL BE USED
Info: RESTART FILENAME       relaxation.restart
Info: RESTART FREQUENCY      500
Info: BINARY RESTART FILES WILL BE USED
Info: SWITCHING ACTIVE
Info: VDW FORCE SWITCHING ACTIVE
Info: SWITCHING ON           10
Info: SWITCHING OFF          12
Info: PAIRLIST DISTANCE      16
Info: PAIRLIST SHRINK RATE   0.01
Info: PAIRLIST GROW RATE     0.01
Info: PAIRLIST TRIGGER       0.3
Info: PAIRLISTS PER CYCLE    2
Info: PAIRLISTS ENABLED
Info: MARGIN                 0
Info: HYDROGEN GROUP CUTOFF  2.5
Info: PATCH DIMENSION        18.5
Info: ENERGY OUTPUT STEPS    125
Info: CROSSTERM ENERGY INCLUDED IN DIHEDRAL
Info: TIMING OUTPUT STEPS    1000
Info: VELOCITY REASSIGNMENT FREQ  500
Info: VELOCITY REASSIGNMENT TEMP  300
Info: USING VERLET I (r-RESPA) MTS SCHEME.
Info: C1 SPLITTING OF LONG RANGE ELECTROSTATICS
Info: PLACING ATOMS IN PATCHES BY HYDROGEN GROUPS
Info: RIGID BONDS TO HYDROGEN : ALL
Info:         ERROR TOLERANCE : 1e-08
Info:          MAX ITERATIONS : 100
Info: RIGID WATER USING SETTLE ALGORITHM
Info: RANDOM NUMBER SEED     1696969389
Info: USE HYDROGEN BONDS?    NO
Info: COORDINATE PDB         step5_charmm2namd.pdb
Info: STRUCTURE FILE         ../step5_assembly.psf
Info: PARAMETER file: CHARMM format!
Info: PARAMETERS             toppar/par_all36m_prot.prm
Info: PARAMETERS             toppar/par_all36_na.prm
Info: PARAMETERS             toppar/par_all36_carb.prm
Info: PARAMETERS             toppar/par_all36_lipid.prm
Info: PARAMETERS             toppar/par_all36_cgenff.prm
Info: PARAMETERS             toppar/par_interface.prm
Info: PARAMETERS             toppar/toppar_water_ions.str
Info: PARAMETERS             toppar/toppar_dum_noble_gases.str
Info: PARAMETERS             toppar/toppar_all36_prot_d_aminoacids.str
Info: PARAMETERS             toppar/toppar_all36_prot_fluoro_alkanes.str
Info: PARAMETERS             toppar/toppar_all36_prot_heme.str
Info: PARAMETERS             toppar/toppar_all36_prot_na_combined.str
Info: PARAMETERS             toppar/toppar_all36_prot_retinol.str
Info: PARAMETERS             toppar/toppar_all36_na_nad_ppi.str
Info: PARAMETERS             toppar/toppar_all36_na_rna_modified.str
Info: PARAMETERS             toppar/toppar_all36_lipid_bacterial.str
Info: PARAMETERS             toppar/toppar_all36_lipid_cardiolipin.str
Info: PARAMETERS             toppar/toppar_all36_lipid_cholesterol.str
Info: PARAMETERS             toppar/toppar_all36_lipid_inositol.str
Info: PARAMETERS             toppar/toppar_all36_lipid_lps.str
Info: PARAMETERS             toppar/toppar_all36_lipid_miscellaneous.str
Info: PARAMETERS             toppar/toppar_all36_lipid_model.str
Info: PARAMETERS             toppar/toppar_all36_lipid_prot.str
Info: PARAMETERS             toppar/toppar_all36_lipid_pyrophosphate.str
Info: PARAMETERS             toppar/toppar_all36_lipid_sphingo.str
Info: PARAMETERS             toppar/toppar_all36_lipid_yeast.str
Info: PARAMETERS             toppar/toppar_all36_lipid_hmmm.str
Info: PARAMETERS             toppar/toppar_all36_lipid_detergent.str
Info: PARAMETERS             toppar/toppar_all36_lipid_ether.str
Info: PARAMETERS             toppar/toppar_all36_carb_glycolipid.str
Info: PARAMETERS             toppar/toppar_all36_carb_glycopeptide.str
Info: PARAMETERS             toppar/toppar_all36_carb_imlab.str
Info: PARAMETERS             toppar/toppar_all36_label_spin.str
Info: PARAMETERS             toppar/toppar_all36_label_fluorophore.str
Info: USING ARITHMETIC MEAN TO COMBINE L-J SIGMA PARAMETERS
Info: 1723 BONDS
Info: 5324 ANGLES
Info: 13940 DIHEDRAL
Info: 339 IMPROPER
Info: 14 CROSSTERM
Info: 624 VDW
Info: 47 VDW_PAIRS
Info: 0 NBTHOLE_PAIRS
Info: STRUCTURE SUMMARY:
Info: 666798 ATOMS
Info: 492823 BONDS
Info: 452970 ANGLES
Info: 394637 DIHEDRALS
Info: 7020 IMPROPERS
Info: 1868 CROSSTERMS
Info: 0 EXCLUSIONS
Info: 604593 RIGID BONDS
Info: 1395798 DEGREES OF FREEDOM
Info: 234740 HYDROGEN GROUPS
Info: 4 ATOMS IN LARGEST HYDROGEN GROUP
Info: 234740 MIGRATION GROUPS
Info: 4 ATOMS IN LARGEST MIGRATION GROUP
Info: TOTAL MASS = 4.02618e+06 amu
Info: TOTAL CHARGE = 6.92606e-05 e
Info: ADDED 1338755 IMPLICIT EXCLUSIONS
Info: NONBONDED TABLE R-SQUARED SPACING: 0.0625
Info: NONBONDED TABLE SIZE: 769 POINTS
Info: ORIGINAL ATOMS MINMAX IS -93.274 -92.428 -115.615  92.74 92.472 149.605
Info: ADJUSTED ATOMS MINMAX IS -87.5154 -87.3078 -114.09  87.4144 87.9788 118.27
Info: REMOVING COM VELOCITY 0.00914428 0.00267374 -0.0160569
TCL: Minimizing for 2000 steps
ETITLE: TS BOND ANGLE DIHED IMPRP ELECT VDW BOUNDARY MISC KINETIC TOTAL TEMP POTENTIAL TOTAL3 TEMPAVG
ENERGY: 0 212325.5774 357284.4934 71003.9228 2055.1197 -1927170.8375 13250004865.2657 0.0000 0.0000 0.0000 13248720363.5417 0.0000 13248720363.5417 13248720363.5417 0.0000
ENERGY: 400 4905.0704 42446.0887 65451.7978 567.4942 -2308330.4807 179228.7718 0.0000 0.0000 0.0000 -2015731.2578 0.0000 -2015731.2578 -2015731.2578 0.0000
ENERGY: 800 3995.8256 33457.0368 64737.0972 509.1463 -2375379.6580 185890.8662 0.0000 0.0000 0.0000 -2086789.6859 0.0000 -2086789.6859 -2086789.6859 0.0000
ENERGY: 1200 3702.9671 30644.6820 64198.4956 480.4762 -2413174.7734 192755.2954 0.0000 0.0000 0.0000 -2121392.8572 0.0000 -2121392.8572 -2121392.8572 0.0000
ENERGY: 1600 3573.4200 28560.1735 63649.1907 453.8026 -2448435.8273 200421.6315 0.0000 0.0000 0.0000 -2151777.6090 0.0000 -2151777.6090 -2151777.6090 0.0000
ENERGY: 2000 3521.0577 27072.3576 63071.3912 429.3894 -2480253.0440 208333.8594 0.0000 0.0000 0.0000 -2177824.9888 0.0000 -2177824.9888 -2177824.9888 0.0000
TCL: Running for 500 steps
ETITLE: TS BOND ANGLE DIHED IMPRP ELECT VDW BOUNDARY MISC KINETIC TOTAL TEMP POTENTIAL TOTAL3 TEMPAVG
ENERGY: 2000 3521.0577 27072.3576 63071.3912 429.3894 -2480253.0440 208333.8594 0.0000 0.0000 416837.5408 -1760987.4480 300.5624 -2177824.9888 -1761047.8929 300.5624
ENERGY: 2125 10904.4289 57640.0966 67216.3280 1091.7272 -2314061.7116 185387.9207 0.0000 0.0000 231590.3176 -1760230.8925 166.9891 -1991821.2102 -1759966.1948 168.2019
ENERGY: 2250 11550.0416 59642.3314 67363.9840 1037.8574 -2359412.1950 205907.5044 0.0000 0.0000 253730.0593 -1760180.4169 182.9531 -2013910.4762 -1759976.3050 176.6115
ENERGY: 2375 11637.0234 57454.8039 67535.7908 1060.9198 -2370741.1954 210832.4042 0.0000 0.0000 261982.7040 -1760237.5493 188.9037 -2022220.2533 -1759978.0102 186.6300
ENERGY: 2500 11667.6065 58555.8602 67750.4994 1036.7992 -2379545.6764 215328.9665 0.0000 0.0000 415140.2389 -1610065.7057 299.3385 -2025205.9445 -1540892.5192 190.4081
TCL: Setting parameter reassignTemp to 300
TCL: Running for 500 steps
ETITLE: TS BOND ANGLE DIHED IMPRP ELECT VDW BOUNDARY MISC KINETIC TOTAL TEMP POTENTIAL TOTAL3 TEMPAVG
ENERGY: 2500 11667.6065 58555.8602 67750.4994 1036.7992 -2379545.6764 215328.9665 0.0000 0.0000 416837.9420 -1608368.0026 300.5627 -2025205.9445 -1614416.5340 300.5627
ENERGY: 2625 15085.2664 73256.9896 68730.5222 1380.4310 -2290177.7492 197129.9471 0.0000 0.0000 326589.8261 -1608004.7669 235.4889 -1934594.5930 -1607633.1399 240.0553
ENERGY: 2750 15236.8642 74269.8980 68406.5047 1367.8559 -2289272.5413 193504.2368 0.0000 0.0000 328507.4478 -1607979.7339 236.8716 -1936487.1817 -1607636.9957 236.6189
ENERGY: 2875 15309.5489 72595.0143 68134.8059 1330.5976 -2291761.5316 193383.4081 0.0000 0.0000 332994.4878 -1608013.6689 240.1070 -1941008.1567 -1607639.1621 238.8589
ENERGY: 3000 14753.4430 72220.7911 68085.2018 1289.5564 -2296410.0623 194761.3942 0.0000 0.0000 416016.8210 -1529282.8547 299.9706 -1945299.6757 -1492770.1179 241.2194
TCL: Setting parameter reassignTemp to 350
TCL: Running for 500 steps
ETITLE: TS BOND ANGLE DIHED IMPRP ELECT VDW BOUNDARY MISC KINETIC TOTAL TEMP POTENTIAL TOTAL3 TEMPAVG
ENERGY: 3000 14753.4430 72220.7911 68085.2018 1289.5564 -2296410.0623 194761.3942 0.0000 0.0000 484977.8516 -1460321.8242 349.6952 -1945299.6757 -1463259.1392 349.6952
ENERGY: 3125 18045.4062 85187.6820 69556.2203 1588.6509 -2209876.3413 180405.1634 0.0000 0.0000 395085.8004 -1460007.4180 284.8782 -1855093.2184 -1459545.5101 293.0531
ENERGY: 3250 18182.1374 86185.4675 69519.4933 1591.9675 -2204499.4903 175429.5519 0.0000 0.0000 393602.8683 -1459988.0045 283.8089 -1853590.8728 -1459552.6356 284.2524
ENERGY: 3375 18104.9520 84918.4864 69389.4700 1573.8949 -2204521.7763 174553.3076 0.0000 0.0000 395966.2016 -1460015.4639 285.5130 -1855981.6655 -1459553.5319 284.7428
ENERGY: 3500 17887.3436 84767.0974 69355.8777 1565.5118 -2202566.2152 172398.6396 0.0000 0.0000 485247.1027 -1371344.6424 349.8894 -1856591.7450 -1330236.7030 285.6117
TCL: Setting parameter reassignTemp to 400
TCL: Running for 500 steps
ETITLE: TS BOND ANGLE DIHED IMPRP ELECT VDW BOUNDARY MISC KINETIC TOTAL TEMP POTENTIAL TOTAL3 TEMPAVG
ENERGY: 3500 17887.3436 84767.0974 69355.8777 1565.5118 -2202566.2152 172398.6396 0.0000 0.0000 555197.2641 -1301394.4810 400.3272 -1856591.7450 -1304674.4394 400.3272
ENERGY: 3625 20603.5534 97066.2833 71219.8775 1771.7918 -2116261.0502 162128.2321 0.0000 0.0000 462372.5568 -1301098.7552 333.3956 -1763471.3120 -1300557.9924 342.5666
ENERGY: 3750 21068.6520 97445.4860 71080.7542 1764.7714 -2103896.2611 154733.8843 0.0000 0.0000 456724.8135 -1301077.8997 329.3233 -1757802.7132 -1300563.1672 330.6364
ENERGY: 3875 21040.4653 96508.9265 71033.4716 1857.3363 -2100338.0843 152265.1580 0.0000 0.0000 456536.7001 -1301096.0266 329.1876 -1757632.7267 -1300563.5450 329.2560
ENERGY: 4000 20400.7366 96458.0206 71021.2834 1786.1912 -2100118.2751 152062.4528 0.0000 0.0000 556457.1195 -1201932.4711 401.2357 -1758389.5906 -1155968.4391 329.4935
TCL: Setting parameter reassignTemp to 450
TCL: Running for 500 steps
ETITLE: TS BOND ANGLE DIHED IMPRP ELECT VDW BOUNDARY MISC KINETIC TOTAL TEMP POTENTIAL TOTAL3 TEMPAVG
ENERGY: 4000 20400.7366 96458.0206 71021.2834 1786.1912 -2100118.2751 152062.4528 0.0000 0.0000 624081.8916 -1134307.6989 449.9968 -1758389.5906 -1137960.7860 449.9968
ENERGY: 4125 23392.5772 108296.5701 72931.3862 2122.0412 -2011509.5525 143590.5372 0.0000 0.0000 527159.6174 -1134016.8231 380.1106 -1661176.4405 -1133410.1961 390.6082
ENERGY: 4250 23569.8380 108197.8853 72857.9669 1994.0941 -1998802.2462 135960.6405 0.0000 0.0000 522213.6328 -1134008.1886 376.5442 -1656221.8214 -1133415.6933 377.8630
ENERGY: 4375 23750.0684 107641.2751 72930.7311 1991.6957 -1995531.5113 134233.9177 0.0000 0.0000 520967.0432 -1134016.7801 375.6454 -1654983.8233 -1133415.6602 376.1711
ENERGY: 4500 23244.2963 107443.6393 73126.3592 2002.4970 -1994992.9090 133857.9017 0.0000 0.0000 623484.1423 -1031834.0732 449.5658 -1655318.2155 -984484.9976 376.0899
TCL: Setting parameter reassignTemp to 500
TCL: Running for 500 steps
ETITLE: TS BOND ANGLE DIHED IMPRP ELECT VDW BOUNDARY MISC KINETIC TOTAL TEMP POTENTIAL TOTAL3 TEMPAVG
ENERGY: 4500 23244.2963 107443.6393 73126.3592 2002.4970 -1994992.9090 133857.9017 0.0000 0.0000 692101.9222 -963216.2934 499.0429 -1655318.2155 -966934.4009 499.0429
ENERGY: 4625 26070.1881 119430.4848 74970.8815 2231.6072 -1911700.1502 128393.3443 0.0000 0.0000 597675.3185 -962928.3258 430.9562 -1560603.6443 -962248.6955 440.6054
ENERGY: 4750 26148.9993 119738.0896 74739.0296 2249.3384 -1901408.1918 122920.7012 0.0000 0.0000 592690.5057 -962921.5280 427.3619 -1555612.0338 -962254.8884 428.6109
ENERGY: 4875 26271.3376 119357.2995 74814.2682 2222.2506 -1897950.9823 122129.7393 0.0000 0.0000 590233.4017 -962922.6855 425.5902 -1553156.0871 -962253.5967 426.8086
ENERGY: 5000 26183.5260 118944.2466 74999.1125 2199.4780 -1895239.1264 120275.3212 0.0000 0.0000 693655.6481 -858981.7940 500.1632 -1552637.4421 -810723.2565 426.4909
TCL: Setting parameter reassignTemp to 550
TCL: Running for 500 steps
ETITLE: TS BOND ANGLE DIHED IMPRP ELECT VDW BOUNDARY MISC KINETIC TOTAL TEMP POTENTIAL TOTAL3 TEMPAVG
ENERGY: 5000 26183.5260 118944.2466 74999.1125 2199.4780 -1895239.1264 120275.3212 0.0000 0.0000 763108.1942 -789529.2479 550.2422 -1552637.4421 -793259.6315 550.2422
ENERGY: 5125 28779.4323 130314.0421 76874.5536 2442.8106 -1822121.4772 121157.2197 0.0000 0.0000 673303.0779 -789250.3409 485.4879 -1462553.4188 -788504.4069 494.4225
ENERGY: 5250 29208.9800 130575.0281 76666.7935 2426.1229 -1810573.8423 115002.6499 0.0000 0.0000 667449.2106 -789245.0572 481.2669 -1456694.2678 -788508.9875 483.3471
ENERGY: 5375 28779.0693 130084.8632 77045.3150 2451.9844 -1806942.7139 113089.9149 0.0000 0.0000 666233.0484 -789258.5187 480.3900 -1455491.5670 -788509.7161 480.7678
ENERGY: 5500 28478.8837 129991.8244 77097.1482 2389.8892 -1804874.4230 112145.7860 0.0000 0.0000 762952.2821 -691818.6093 550.1298 -1454770.8914 -646492.1178 480.7803
TCL: Setting parameter reassignTemp to 600
TCL: Running for 2500 steps
ETITLE: TS BOND ANGLE DIHED IMPRP ELECT VDW BOUNDARY MISC KINETIC TOTAL TEMP POTENTIAL TOTAL3 TEMPAVG
ENERGY: 5500 28478.8837 129991.8244 77097.1482 2389.8892 -1804874.4230 112145.7860 0.0000 0.0000 833360.9459 -621409.9455 600.8983 -1454770.8914 -624796.1285 600.8983
ENERGY: 6000 31373.2850 140856.3680 78969.4364 2609.2741 -1720366.3357 105168.2671 0.0000 0.0000 831352.2055 -530037.4995 599.4499 -1361389.7050 -487590.0005 534.6616
ENERGY: 6500 32817.3242 146962.3851 80249.7257 2764.4629 -1673853.7361 101948.7235 0.0000 0.0000 832190.5865 -476920.5282 600.0544 -1309111.1146 -451859.4183 562.6928
ENERGY: 7000 33371.3659 149958.0833 80870.0398 2908.2325 -1644961.1784 98338.1376 0.0000 0.0000 832519.1241 -446996.1951 600.2913 -1279515.3192 -432439.8293 579.2108
ENERGY: 7500 34113.9301 151265.9818 81381.2108 2861.4573 -1626622.8760 97123.2087 0.0000 0.0000 833558.4925 -426318.5947 601.0407 -1259877.0872 -415906.7795 586.7814
ENERGY: 8000 34295.5807 151332.3282 81455.0910 3007.3102 -1611220.4262 94700.4078 0.0000 0.0000 832984.6632 -413445.0449 600.6270 -1246429.7082 -406799.3806 591.7759
TCL: Setting parameter reassignTemp to 600
TCL: Running for 5500 steps
ETITLE: TS BOND ANGLE DIHED IMPRP ELECT VDW BOUNDARY MISC KINETIC TOTAL TEMP POTENTIAL TOTAL3 TEMPAVG
ENERGY: 8000 34295.5807 151332.3282 81455.0910 3007.3102 -1611220.4262 94700.4078 0.0000 0.0000 833139.7986 -413289.9096 600.7388 -1246429.7082 -412931.3843 600.7388
ENERGY: 9125 34180.1057 152465.0110 81723.8617 2891.6931 -1591148.7516 92965.7493 0.0000 0.0000 828184.6755 -398737.6553 597.1659 -1226922.3308 -397842.8431 597.5503
ENERGY: 10250 34028.4062 152416.7896 82128.4662 2862.1367 -1575618.1828 89132.3860 0.0000 0.0000 828585.5134 -386464.4847 597.4549 -1215049.9982 -385574.2589 598.0041
ENERGY: 11250 34202.1781 152673.8045 81996.4406 2916.6745 -1564863.7566 86826.5434 0.0000 0.0000 828923.1811 -377324.9342 597.6984 -1206248.1153 -376435.0507 597.9382
ENERGY: 12375 34256.3453 152667.5131 81914.6921 2902.4539 -1553843.7514 83932.9382 0.0000 0.0000 828783.6410 -369386.1679 597.5978 -1198169.8089 -368499.7854 598.0876
ENERGY: 13500 34393.0707 151999.9146 82329.0308 3025.7791 -1543727.6936 82506.4717 0.0000 0.0000 832168.5512 -357304.8755 600.0385 -1189473.4267 -355264.7137 598.2271
TCL: Setting parameter reassignTemp to 550
TCL: Running for 5500 steps
ETITLE: TS BOND ANGLE DIHED IMPRP ELECT VDW BOUNDARY MISC KINETIC TOTAL TEMP POTENTIAL TOTAL3 TEMPAVG
ENERGY: 13500 34393.0707 151999.9146 82329.0308 3025.7791 -1543727.6936 82506.4717 0.0000 0.0000 764411.0396 -425062.3871 551.1817 -1189473.4267 -424241.3054 551.1817
ENERGY: 14625 32090.1213 142950.2109 80847.9228 2876.5670 -1588974.6261 83745.4527 0.0000 0.0000 769515.3453 -476949.0062 554.8621 -1246464.3515 -476129.8627 554.3245
ENERGY: 15750 31970.0237 141931.8424 80435.0393 2690.9199 -1591218.6932 84182.7860 0.0000 0.0000 762956.2177 -487051.8642 550.1327 -1250008.0818 -486237.2994 550.9232
ENERGY: 16750 31987.6593 141695.3675 80182.4273 2741.7117 -1590175.9615 83811.6744 0.0000 0.0000 763517.1246 -486239.9966 550.5371 -1249757.1213 -485426.5149 550.9309
ENERGY: 17875 31934.7023 141674.8348 80276.1647 2721.8895 -1587637.0891 82211.1982 0.0000 0.0000 763116.1679 -485702.1316 550.2480 -1248818.2996 -484889.0434 550.0845
ENERGY: 19000 32030.4995 142440.2994 80379.8107 2666.9757 -1586289.5412 82673.0148 0.0000 0.0000 761000.9146 -485098.0265 548.7228 -1246098.9412 -484569.0055 549.3818
TCL: Setting parameter reassignTemp to 500
TCL: Running for 5500 steps
ETITLE: TS BOND ANGLE DIHED IMPRP ELECT VDW BOUNDARY MISC KINETIC TOTAL TEMP POTENTIAL TOTAL3 TEMPAVG
ENERGY: 19000 32030.4995 142440.2994 80379.8107 2666.9757 -1586289.5412 82673.0148 0.0000 0.0000 692491.4128 -553607.5284 499.3237 -1246098.9412 -552746.0049 499.3237
ENERGY: 20125 29455.9638 132183.5344 78678.7401 2480.0984 -1643776.1276 86349.3978 0.0000 0.0000 701917.3934 -612710.9998 506.1204 -1314628.3931 -611959.3845 504.6606
ENERGY: 21250 29313.3489 131429.5303 78454.2003 2479.9384 -1652495.5161 86570.8316 0.0000 0.0000 697203.0300 -627044.6366 502.7211 -1324247.6666 -626302.6677 502.2693
ENERGY: 22250 29301.5490 130837.2065 78229.8451 2520.6391 -1655544.1686 88311.4527 0.0000 0.0000 694724.6462 -631618.8300 500.9340 -1326343.4762 -630876.5093 500.9687
ENERGY: 23375 29467.8834 130219.0258 78293.4612 2468.0304 -1656706.0564 88078.0588 0.0000 0.0000 694259.7699 -633919.8269 500.5988 -1328179.5969 -633172.8309 500.5511
ENERGY: 24500 29196.8183 130784.9085 78037.9484 2435.0346 -1656308.8172 87674.9476 0.0000 0.0000 693319.8612 -634859.2986 499.9211 -1328179.1598 -633495.8852 499.5386
TCL: Setting parameter reassignTemp to 450
TCL: Running for 5500 steps
ETITLE: TS BOND ANGLE DIHED IMPRP ELECT VDW BOUNDARY MISC KINETIC TOTAL TEMP POTENTIAL TOTAL3 TEMPAVG
ENERGY: 24500 29196.8183 130784.9085 78037.9484 2435.0346 -1656308.8172 87674.9476 0.0000 0.0000 624782.4875 -703396.6723 450.5019 -1328179.1598 -702688.1399 450.5019
ENERGY: 25625 27029.7453 120688.7472 76494.6968 2241.5558 -1723332.5961 94257.7298 0.0000 0.0000 635165.3640 -767454.7572 457.9885 -1402620.1212 -766771.7891 456.2426
ENERGY: 26750 26757.0896 120385.4820 76019.5970 2255.3947 -1737986.9418 95863.4656 0.0000 0.0000 628353.5927 -788352.3201 453.0769 -1416705.9128 -787678.2507 453.1116
ENERGY: 27750 26434.8830 119453.3478 75888.2139 2245.7520 -1741873.7203 95753.3648 0.0000 0.0000 627043.5325 -795054.6263 452.1323 -1422098.1588 -794375.3403 451.3423
ENERGY: 28875 26804.4109 119644.8746 76176.3529 2231.9580 -1746930.0181 97192.0716 0.0000 0.0000 625683.1983 -799197.1518 451.1514 -1424880.3501 -798525.7596 451.1914
ENERGY: 30000 26331.3808 119752.2297 75898.4324 2268.2877 -1750329.3839 97560.7647 0.0000 0.0000 623836.8031 -804681.4855 449.8200 -1428518.2886 -804915.5725 451.2001
TCL: Setting parameter reassignTemp to 400
TCL: Running for 5500 steps
ETITLE: TS BOND ANGLE DIHED IMPRP ELECT VDW BOUNDARY MISC KINETIC TOTAL TEMP POTENTIAL TOTAL3 TEMPAVG
ENERGY: 30000 26331.3808 119752.2297 75898.4324 2268.2877 -1750329.3839 97560.7647 0.0000 0.0000 555078.8905 -873439.3982 400.2419 -1428518.2886 -872653.8411 400.2419
ENERGY: 31125 24478.7402 110015.3458 74008.4802 2105.6625 -1822525.5928 104773.5804 0.0000 0.0000 567271.3844 -939872.3994 409.0333 -1507143.7837 -939256.9937 407.8127
ENERGY: 32250 24079.1742 109133.0804 73798.5226 1985.8617 -1842689.1700 107732.9933 0.0000 0.0000 561027.3769 -964932.1609 404.5311 -1525959.5378 -964324.9355 404.1379
ENERGY: 33250 24136.2274 108668.5790 73431.8732 2048.9657 -1851862.9128 109572.0860 0.0000 0.0000 557195.1457 -976810.0359 401.7678 -1534005.1815 -976203.0691 402.0402
ENERGY: 34375 24024.7600 108738.3624 73290.7758 1989.8452 -1859223.8792 110498.0564 0.0000 0.0000 557141.8391 -983540.2402 401.7294 -1540682.0793 -982930.0598 401.2885
ENERGY: 35500 23869.2930 108706.4619 73527.5067 1989.4274 -1862082.6487 110273.6933 0.0000 0.0000 556161.0904 -987555.1760 401.0222 -1543716.2664 -986791.5943 401.2011
TCL: Setting parameter reassignTemp to 350
TCL: Running for 5500 steps
ETITLE: TS BOND ANGLE DIHED IMPRP ELECT VDW BOUNDARY MISC KINETIC TOTAL TEMP POTENTIAL TOTAL3 TEMPAVG
ENERGY: 35500 23869.2930 108706.4619 73527.5067 1989.4274 -1862082.6487 110273.6933 0.0000 0.0000 485387.1772 -1058329.0891 349.9904 -1543716.2664 -1057721.6688 349.9904
ENERGY: 36625 21705.5188 99133.7464 71465.7293 1806.8513 -1943735.0032 120000.5555 0.0000 0.0000 500568.8836 -1129053.7183 360.9372 -1629622.6019 -1128504.0491 358.7460
ENERGY: 37750 21373.3720 97758.1263 71299.2838 1796.5151 -1967835.9356 124491.4640 0.0000 0.0000 491844.2773 -1159272.8972 354.6463 -1651117.1745 -1158729.6789 354.3595
ENERGY: 38750 21394.2224 97878.9554 71428.4767 1782.3002 -1978431.6551 125462.5785 0.0000 0.0000 488378.1827 -1172106.9393 352.1471 -1660485.1220 -1171564.7317 352.1019
ENERGY: 39875 21529.8785 97798.2797 71241.7588 1716.8593 -1987273.3217 128093.8517 0.0000 0.0000 488608.7410 -1178283.9527 352.3133 -1666892.6937 -1177746.1552 352.1100
ENERGY: 41000 21348.9998 97597.0371 71113.4875 1852.5790 -1992414.4436 127475.7369 0.0000 0.0000 485674.9623 -1187351.6410 350.1979 -1673026.6033 -1187864.6834 351.5012
TCL: Setting parameter reassignTemp to 300
TCL: Running for 5500 steps
ETITLE: TS BOND ANGLE DIHED IMPRP ELECT VDW BOUNDARY MISC KINETIC TOTAL TEMP POTENTIAL TOTAL3 TEMPAVG
ENERGY: 41000 21348.9998 97597.0371 71113.4875 1852.5790 -1992414.4436 127475.7369 0.0000 0.0000 416550.0071 -1256476.5962 300.3551 -1673026.6033 -1255818.5682 300.3551
ENERGY: 42125 19229.1497 88177.8338 69053.2540 1617.0716 -2079830.5129 141014.4522 0.0000 0.0000 431931.8225 -1328806.9291 311.4462 -1760738.7516 -1328331.7838 309.7915
ENERGY: 43250 18860.8939 87355.3696 68863.6529 1592.0631 -2108142.2334 145916.9612 0.0000 0.0000 424649.1851 -1360904.1076 306.1950 -1785553.2927 -1360431.1413 305.7373
ENERGY: 44250 18978.8904 86968.1268 68669.0675 1524.9860 -2119148.1591 147605.9727 0.0000 0.0000 420041.8271 -1375359.2886 302.8729 -1795401.1157 -1374888.4870 303.2798
ENERGY: 45375 18689.7658 86286.1607 68617.7780 1485.3138 -2128487.4262 149347.7813 0.0000 0.0000 420588.9652 -1383471.6614 303.2674 -1804060.6266 -1382996.9364 302.4378
ENERGY: 46500 18554.5500 86608.4488 68410.9653 1587.9920 -2135843.0223 151656.9645 0.0000 0.0000 416705.1535 -1392318.9483 300.4669 -1809024.1018 -1392556.6573 301.5459
TCL: Setting parameter reassignTemp to 250
TCL: Running for 5500 steps
ETITLE: TS BOND ANGLE DIHED IMPRP ELECT VDW BOUNDARY MISC KINETIC TOTAL TEMP POTENTIAL TOTAL3 TEMPAVG
ENERGY: 46500 18554.5500 86608.4488 68410.9653 1587.9920 -2135843.0223 151656.9645 0.0000 0.0000 346369.0444 -1462655.0574 249.7508 -1809024.1018 -1462103.7600 249.7508
ENERGY: 47625 16591.0200 76995.6858 66664.3840 1378.0224 -2227428.5904 165792.3618 0.0000 0.0000 364129.8167 -1535877.2997 262.5573 -1900007.1164 -1535465.3312 260.3957
ENERGY: 48750 16195.0982 76113.8399 66292.6370 1324.7608 -2257127.0043 172151.2924 0.0000 0.0000 356042.9337 -1569006.4423 256.7262 -1925049.3760 -1568599.6262 256.4826
ENERGY: 49750 16135.8209 75837.7004 66369.8769 1373.8583 -2274814.2431 176579.0274 0.0000 0.0000 351676.5762 -1586841.3830 253.5778 -1938517.9592 -1586436.9446 253.6617
ENERGY: 50875 16033.6802 75486.1685 66319.4803 1319.1174 -2285872.3570 178687.5222 0.0000 0.0000 349700.7646 -1598325.6238 252.1531 -1948026.3884 -1597924.2939 252.0922
ENERGY: 52000 16205.3275 75669.8543 66185.8061 1329.0196 -2291647.2533 179919.0033 0.0000 0.0000 346488.9317 -1605849.3109 249.8372 -1952338.2426 -1606356.4581 251.6212
TCL: Setting parameter reassignTemp to 200
TCL: Running for 5500 steps
ETITLE: TS BOND ANGLE DIHED IMPRP ELECT VDW BOUNDARY MISC KINETIC TOTAL TEMP POTENTIAL TOTAL3 TEMPAVG
ENERGY: 52000 16205.3275 75669.8543 66185.8061 1329.0196 -2291647.2533 179919.0033 0.0000 0.0000 277760.3773 -1674577.8653 200.2802 -1952338.2426 -1674080.6068 200.2802
ENERGY: 53125 14120.0712 65996.6209 64262.3644 1114.2005 -2383027.5650 195731.1172 0.0000 0.0000 294614.8968 -1747188.2940 212.4333 -2041803.1908 -1746849.4883 210.2255
ENERGY: 54250 13740.0215 64948.5943 64183.7836 1139.1487 -2411212.0614 203088.2844 0.0000 0.0000 285784.2780 -1778327.9509 206.0659 -2064112.2288 -1777994.8355 205.9781
ENERGY: 55250 13530.6526 64365.9412 64027.4447 1138.3049 -2427601.6549 207153.7021 0.0000 0.0000 282625.3383 -1794760.2710 203.7881 -2077385.6094 -1794425.6621 203.3229
ENERGY: 56375 13404.6321 64278.5341 63916.4634 1102.6290 -2437405.5395 210417.3196 0.0000 0.0000 279861.4014 -1804424.5599 201.7952 -2084285.9613 -1804094.7649 202.0983
ENERGY: 57500 13499.6908 64412.2544 63961.3624 1099.4690 -2446497.9145 212601.5944 0.0000 0.0000 277222.6044 -1813700.9391 199.8925 -2090923.5435 -1814417.3684 201.4126
TCL: Setting parameter reassignTemp to 150
TCL: Running for 5500 steps
ETITLE: TS BOND ANGLE DIHED IMPRP ELECT VDW BOUNDARY MISC KINETIC TOTAL TEMP POTENTIAL TOTAL3 TEMPAVG
ENERGY: 57500 13499.6908 64412.2544 63961.3624 1099.4690 -2446497.9145 212601.5944 0.0000 0.0000 208112.6962 -1882810.8474 150.0605 -2090923.5435 -1882375.0004 150.0605
ENERGY: 58625 11275.2536 55209.5015 62296.5645 933.4839 -2526471.3102 225600.5788 0.0000 0.0000 223078.8076 -1948077.1203 160.8519 -2171155.9279 -1947814.1302 159.3776
ENERGY: 59750 11051.9665 54058.6247 62143.9498 919.7594 -2547186.5683 232337.8751 0.0000 0.0000 214371.7273 -1972302.6656 154.5736 -2186674.3929 -1972046.4598 154.7686
ENERGY: 60750 10928.9936 53836.6785 62049.8605 911.3384 -2558755.2618 236097.5759 0.0000 0.0000 211325.9539 -1983604.8608 152.3774 -2194930.8147 -1983349.1325 152.3493
ENERGY: 61875 10928.8568 53918.9320 61997.2394 888.9413 -2565015.2730 237778.7230 0.0000 0.0000 210344.6230 -1989157.9575 151.6698 -2199502.5806 -1988904.7920 151.6630
ENERGY: 63000 10917.8783 53698.4280 62082.9886 883.0113 -2570928.4691 240396.5254 0.0000 0.0000 208265.2383 -1994684.3992 150.1705 -2202949.6375 -1995044.8947 151.1233
TCL: Setting parameter reassignTemp to 100
TCL: Running for 5500 steps
ETITLE: TS BOND ANGLE DIHED IMPRP ELECT VDW BOUNDARY MISC KINETIC TOTAL TEMP POTENTIAL TOTAL3 TEMPAVG
ENERGY: 63000 10917.8783 53698.4280 62082.9886 883.0113 -2570928.4691 240396.5254 0.0000 0.0000 138518.4747 -2064431.1628 99.8793 -2202949.6375 -2064115.5053 99.8793
ENERGY: 64125 8761.4511 44589.7829 60358.7439 722.4905 -2641450.3583 252335.4908 0.0000 0.0000 151857.6087 -2122824.7905 109.4975 -2274682.3992 -2122644.5632 108.3043
ENERGY: 65250 8457.1880 43395.3770 60346.5257 703.4723 -2652732.6857 255288.9685 0.0000 0.0000 143935.0984 -2140606.0557 103.7850 -2284541.1541 -2140428.1931 103.7911
ENERGY: 66250 8326.2702 42844.8736 60241.7716 710.7947 -2658362.7481 257291.9814 0.0000 0.0000 141280.7705 -2147666.2861 101.8711 -2288947.0566 -2147491.6791 101.7630
ENERGY: 67375 8335.4749 43029.2723 60186.8322 690.2833 -2662351.1143 259054.2050 0.0000 0.0000 140097.1318 -2150957.9150 101.0176 -2291055.0467 -2150787.0796 101.0562
ENERGY: 68500 8371.5320 42985.4872 60224.6919 722.0034 -2665314.9110 260347.6337 0.0000 0.0000 138368.0360 -2154295.5268 99.7708 -2292663.5629 -2154531.8866 100.6178
TCL: Setting parameter reassignTemp to 50
TCL: Running for 5500 steps
ETITLE: TS BOND ANGLE DIHED IMPRP ELECT VDW BOUNDARY MISC KINETIC TOTAL TEMP POTENTIAL TOTAL3 TEMPAVG
ENERGY: 68500 8371.5320 42985.4872 60224.6919 722.0034 -2665314.9110 260347.6337 0.0000 0.0000 69386.8036 -2223276.7592 50.0316 -2292663.5629 -2223068.7259 50.0316
ENERGY: 69625 6165.1729 33836.4771 58700.9702 521.8684 -2727577.9617 270268.3284 0.0000 0.0000 81896.9515 -2276188.1932 59.0521 -2358085.1448 -2276090.1199 58.1937
ENERGY: 70750 5870.8751 32896.2615 58590.8327 494.9341 -2735458.0576 272699.2186 0.0000 0.0000 74884.3670 -2290021.5686 53.9957 -2364905.9356 -2289923.5278 54.0034
ENERGY: 71750 5801.0168 32481.4888 58571.0900 501.7911 -2739547.3639 274139.9125 0.0000 0.0000 72391.7236 -2295660.3411 52.1983 -2368052.0647 -2295566.3259 52.1522
ENERGY: 72875 5777.9500 32507.7802 58562.1722 497.9213 -2742256.2185 275416.9909 0.0000 0.0000 71137.6346 -2298355.7693 51.2941 -2369493.4040 -2298267.4576 51.3370
ENERGY: 74000 5838.9788 32611.9707 58591.1847 497.4417 -2742910.5793 275595.8512 0.0000 0.0000 69307.7500 -2300467.4022 49.9746 -2369775.1523 -2300686.1767 50.8857
TCL: Setting parameter reassignTemp to 0
TCL: Running for 5500 steps
ETITLE: TS BOND ANGLE DIHED IMPRP ELECT VDW BOUNDARY MISC KINETIC TOTAL TEMP POTENTIAL TOTAL3 TEMPAVG
ENERGY: 74000 5838.9788 32611.9707 58591.1847 497.4417 -2742910.5793 275595.8512 0.0000 0.0000 0.0000 -2369775.1523 0.0000 -2369775.1523 -2369664.2709 0.0000
ENERGY: 75125 3620.5991 23431.3375 57141.1843 316.4662 -2799828.2524 284337.4797 0.0000 0.0000 13989.4386 -2416991.7470 10.0871 -2430981.1856 -2416975.9824 9.2573
ENERGY: 76250 3421.5922 22488.6408 57090.3845 306.0621 -2803730.8104 285786.3119 0.0000 0.0000 9034.6410 -2425603.1780 6.5145 -2434637.8190 -2425583.5548 6.4807
ENERGY: 77250 3355.8077 22219.6983 57070.2377 300.5254 -2806636.9319 287058.2481 0.0000 0.0000 7154.8015 -2429477.6133 5.1590 -2436632.4148 -2429461.1830 5.1169
ENERGY: 78375 3362.7578 22291.8353 57085.5958 295.8468 -2809275.0332 288157.0363 0.0000 0.0000 6285.5460 -2431796.4151 4.5322 -2438081.9611 -2431787.3095 4.3125
ENERGY: 79500 3589.3798 23207.0217 57239.7004 314.8550 -2805831.9250 287501.1992 0.0000 0.0000 0.0000 -2433979.7690 0.0000 -2433979.7690 -2434252.3099 3.5900
TCL: Setting parameter cellBasisVector1 to 175.121988 0.0 0.0
